<routes>

        <!-- vehicle types (changes made : accelx2, decelx2, maxSpeedx2) -->
        <vType accel="6.0" decel="12.0" id="CarA" length="5.0" minGap="2.5" maxSpeed="100.0" sigma="0.5" color="20,20,20" />
        <vType accel="4.0" decel="12.0" id="CarB" length="4.5" minGap="2.5" maxSpeed="100.0" sigma="0.5" color="255,255,255" />
        <vType accel="2.0" decel="10.0" id="CarC" length="5.0" minGap="2.5" maxSpeed="80.0" sigma="0.5" color="128,0,0" />
        <vType accel="2.0" decel="10.0" id="CarD" length="6.0" minGap="2.5" maxSpeed="60.0" sigma="0.5" color="0,128,0" />
        <vType accel="4.0" decel="10.0" id="bus" guiShape="bus" length="11.0" minGap="2.5" maxSpeed="80.0" sigma="0.5" color="0,128,128" />
        <vType accel="6.0" decel="12.0" id="passenger" guiShape="passenger" minGap="2.5" maxSpeed="100.0" color="0,255,0" sigma="0.5" />
        <vType accel="6.0" decel="12.0" id="taxi" guiShape="taxi" minGap="2.5" maxSpeed="100.0" sigma="0.5" color="255,165,0" />
        <vType accel="8.0" decel="14.0" id="police" guiShape="police" minGap="2.5" maxSpeed="120.0" sigma="0.5" /> 
        <vType accel="4.0" decel="12.0" id="emergency" guiShape="emergency" minGap="2.5" maxSpeed="120.0" sigma="0.5" />
        <vType accel="2.0" decel="8.0" id="rail" guiShape="rail" minGap="2.5" maxSpeed="60.0" sigma="0.5" color="255,0,128" />
        <vType accel="4.0" decel="8.0" id="truck" guiShape="truck" minGap="2.5" maxSpeed="80.0" sigma="0.5" color="0,255,255" />
        <vType accel="6.0" decel="12.0" id="delivery" guiShape="delivery" minGap="2.5" maxSpeed="100.0" sigma="0.5" color="255,128,128" />
        <vType accel="6.0" decel="12.0" id="passenger/hatchback" guiShape="passenger/hatchback" minGap="2.5" maxSpeed="100.0" sigma="0.5" color="144,238,144" />
        <vType accel="6.0" decel="12.0" id="passenger/sedan" guiShape="passenger/sedan" minGap="2.5" maxSpeed="100.0" sigma="0.5" color="218,165,32" />
        <vType accel="6.0" decel="10.0" id="passenger/wagon" guiShape="passenger/wagon" minGap="2.5" maxSpeed="110.0" sigma="0.5" color="255,192,203" />
        <vType accel="8.0" decel="12.0" id="passenger/van" guiShape="passenger/van" minGap="2.5" maxSpeed="100.0" sigma="0.5" color="173,216,230" />
        <vType vClass="pedestrian" id="ped0" guiShape="pedestrian" speedFactor="0.7" width="0.62" length="0.39" height="1.65" color="255,0,128" />
        <vType vClass="pedestrian" id="ped1" guiShape="pedestrian" speedFactor="0.7" width="0.65" length="0.41" height="1.73" color="255,165,0" />
        <vType vClass="pedestrian" id="ped2" guiShape="pedestrian" speedFactor="1.0" width="0.61" length="0.37" height="1.60" color="255,128,128" />
        <vType vClass="pedestrian" id="ped3" guiShape="pedestrian" speedFactor="1.0" width="0.66" length="0.43" height="1.75" color="144,238,144" />
        <vType vClass="pedestrian" id="ped4" guiShape="pedestrian" speedFactor="1.3" width="0.64" length="0.40" height="1.68" color="128,128,255" />
        <vType vClass="pedestrian" id="ped5" guiShape="pedestrian" speedFactor="1.3" width="0.63" length="0.42" height="1.70" color="100,87,240" />
        <!-- Routes -->
    <route id="r_0" edges="L16 L10"/>
    <route id="r_1" edges="L9 -E0"/>
    <route id="r_2" edges="L12 -E0"/>
    <route id="r_3" edges="E0 L15"/>
    <route id="r_4" edges="E0 L10"/>
    <route id="r_5" edges="L9 L11"/>
    <route id="r_6" edges="L9 L15"/>
    <route id="r_7" edges="E0 L11"/>
    <route id="r_8" edges="L12 L15"/>
    <route id="r_9" edges="L16 -E0"/>
    <route id="r_10" edges="L16 L11"/>
    <route id="r_11" edges="L12 L10"/>

    <!-- vehicles -->
    <vehicle id="veh129" type="CarD" route="r_4" depart="1.01" />
    <vehicle id="veh745" type="truck" route="r_11" depart="2.81" />
    <vehicle id="veh590" type="passenger/hatchback" route="r_9" depart="3.22" />
    <vehicle id="veh730" type="CarD" route="r_11" depart="4.11" />
    <vehicle id="veh372" type="passenger/van" route="r_5" depart="4.17" />
    <vehicle id="veh139" type="CarB" route="r_4" depart="5.28" />
    <vehicle id="veh224" type="passenger" route="r_5" depart="5.99" />
    <vehicle id="veh830" type="rail" route="r_11" depart="7.32" />
    <vehicle id="veh717" type="CarA" route="r_11" depart="8.55" />
    <vehicle id="veh13" type="CarB" route="r_0" depart="8.69" />
    <vehicle id="veh461" type="delivery" route="r_5" depart="10.14" />
    <vehicle id="veh747" type="passenger/hatchback" route="r_11" depart="21.63" />
    <vehicle id="veh230" type="truck" route="r_5" depart="21.94" />
    <vehicle id="veh703" type="taxi" route="r_11" depart="24.96" />
    <vehicle id="veh385" type="rail" route="r_5" depart="25.11" />
    <vehicle id="veh208" type="emergency" route="r_5" depart="25.36" />
    <vehicle id="veh465" type="CarD" route="r_5" depart="27.76" />
    <vehicle id="veh267" type="police" route="r_5" depart="28.77" />
    <vehicle id="veh41" type="bus" route="r_1" depart="29.71" />
    <vehicle id="veh497" type="CarD" route="r_6" depart="32.96" />
    <vehicle id="veh494" type="police" route="r_6" depart="39.50" />
    <vehicle id="veh120" type="passenger/hatchback" route="r_4" depart="41.07" />
    <vehicle id="veh143" type="passenger/wagon" route="r_4" depart="41.95" />
    <vehicle id="veh69" type="taxi" route="r_2" depart="49.61" />
    <vehicle id="veh552" type="passenger/wagon" route="r_8" depart="52.11" />
    <vehicle id="veh431" type="bus" route="r_5" depart="52.19" />
    <vehicle id="veh276" type="CarC" route="r_5" depart="53.62" />
    <vehicle id="veh651" type="CarC" route="r_11" depart="54.37" />
    <vehicle id="veh476" type="passenger/sedan" route="r_6" depart="54.63" />
    <vehicle id="veh532" type="bus" route="r_8" depart="54.70" />
    <vehicle id="veh104" type="bus" route="r_3" depart="56.02" />
    <vehicle id="veh205" type="passenger/van" route="r_5" depart="65.98" />
    <vehicle id="veh32" type="CarB" route="r_1" depart="66.94" />
    <vehicle id="veh658" type="CarB" route="r_11" depart="67.71" />
    <vehicle id="veh94" type="passenger/wagon" route="r_3" depart="69.75" />
    <vehicle id="veh271" type="CarD" route="r_5" depart="74.66" />
    <vehicle id="veh769" type="passenger/wagon" route="r_11" depart="76.73" />
    <vehicle id="veh520" type="CarC" route="r_7" depart="80.32" />
    <vehicle id="veh611" type="taxi" route="r_10" depart="80.47" />
    <vehicle id="veh203" type="passenger/wagon" route="r_5" depart="86.29" />
    <vehicle id="veh700" type="passenger/wagon" route="r_11" depart="86.92" />
    <vehicle id="veh642" type="CarA" route="r_11" depart="87.76" />
    <vehicle id="veh768" type="passenger" route="r_11" depart="89.00" />
    <vehicle id="veh667" type="CarB" route="r_11" depart="89.17" />
    <vehicle id="veh833" type="passenger/van" route="r_11" depart="92.05" />
    <vehicle id="veh828" type="passenger/van" route="r_11" depart="92.26" />
    <vehicle id="veh61" type="truck" route="r_2" depart="92.56" />
    <vehicle id="veh798" type="passenger/sedan" route="r_11" depart="98.68" />
    <vehicle id="veh9" type="CarD" route="r_0" depart="99.51" />
    <vehicle id="veh373" type="passenger/van" route="r_5" depart="102.20" />
    <vehicle id="veh608" type="passenger" route="r_10" depart="106.44" />
    <vehicle id="veh311" type="delivery" route="r_5" depart="108.25" />
    <vehicle id="veh858" type="truck" route="r_11" depart="109.32" />
    <vehicle id="veh468" type="passenger" route="r_5" depart="112.46" />
    <vehicle id="veh444" type="CarA" route="r_5" depart="113.56" />
    <vehicle id="veh432" type="emergency" route="r_5" depart="115.09" />
    <vehicle id="veh265" type="truck" route="r_5" depart="122.71" />
    <vehicle id="veh173" type="truck" route="r_5" depart="123.80" />
    <vehicle id="veh840" type="rail" route="r_11" depart="125.13" />
    <vehicle id="veh754" type="passenger/wagon" route="r_11" depart="130.00" />
    <vehicle id="veh332" type="emergency" route="r_5" depart="131.50" />
    <vehicle id="veh506" type="passenger/hatchback" route="r_6" depart="133.85" />
    <vehicle id="veh687" type="CarA" route="r_11" depart="134.42" />
    <vehicle id="veh209" type="CarB" route="r_5" depart="134.50" />
    <vehicle id="veh163" type="police" route="r_5" depart="135.46" />
    <vehicle id="veh308" type="rail" route="r_5" depart="142.38" />
    <vehicle id="veh797" type="delivery" route="r_11" depart="143.03" />
    <vehicle id="veh779" type="emergency" route="r_11" depart="144.78" />
    <vehicle id="veh724" type="CarC" route="r_11" depart="147.02" />
    <vehicle id="veh749" type="police" route="r_11" depart="148.84" />
    <vehicle id="veh575" type="taxi" route="r_9" depart="149.26" />
    <vehicle id="veh820" type="CarC" route="r_11" depart="151.34" />
    <vehicle id="veh643" type="passenger/sedan" route="r_11" depart="152.41" />
    <vehicle id="veh213" type="passenger" route="r_5" depart="154.55" />
    <vehicle id="veh280" type="rail" route="r_5" depart="162.86" />
    <vehicle id="veh636" type="passenger/hatchback" route="r_11" depart="163.96" />
    <vehicle id="veh23" type="CarA" route="r_1" depart="165.91" />
    <vehicle id="veh325" type="CarC" route="r_5" depart="166.46" />
    <vehicle id="veh232" type="rail" route="r_5" depart="167.21" />
    <vehicle id="veh76" type="emergency" route="r_2" depart="167.32" />
    <vehicle id="veh826" type="CarD" route="r_11" depart="168.90" />
    <vehicle id="veh235" type="CarB" route="r_5" depart="170.05" />
    <vehicle id="veh578" type="police" route="r_9" depart="172.65" />
    <vehicle id="veh557" type="passenger/hatchback" route="r_8" depart="173.45" />
    <vehicle id="veh755" type="CarD" route="r_11" depart="178.03" />
    <vehicle id="veh518" type="passenger/van" route="r_7" depart="183.16" />
    <vehicle id="veh278" type="delivery" route="r_5" depart="186.89" />
    <vehicle id="veh91" type="passenger" route="r_3" depart="187.11" />
    <vehicle id="veh150" type="bus" route="r_4" depart="192.55" />
    <vehicle id="veh674" type="passenger/van" route="r_11" depart="200.26" />
    <vehicle id="veh252" type="truck" route="r_5" depart="208.12" />
    <vehicle id="veh655" type="passenger/wagon" route="r_11" depart="210.91" />
    <vehicle id="veh530" type="passenger/hatchback" route="r_8" depart="214.51" />
    <vehicle id="veh831" type="passenger/wagon" route="r_11" depart="215.07" />
    <vehicle id="veh508" type="passenger/sedan" route="r_7" depart="215.40" />
    <vehicle id="veh361" type="CarD" route="r_5" depart="216.73" />
    <vehicle id="veh867" type="rail" route="r_11" depart="216.85" />
    <vehicle id="veh316" type="passenger/wagon" route="r_5" depart="216.85" />
    <vehicle id="veh536" type="passenger/sedan" route="r_8" depart="217.15" />
    <vehicle id="veh10" type="CarB" route="r_0" depart="218.27" />
    <vehicle id="veh441" type="passenger/wagon" route="r_5" depart="218.54" />
    <vehicle id="veh436" type="CarA" route="r_5" depart="220.78" />
    <vehicle id="veh849" type="CarC" route="r_11" depart="225.67" />
    <vehicle id="veh694" type="delivery" route="r_11" depart="230.50" />
    <vehicle id="veh307" type="CarD" route="r_5" depart="231.16" />
    <vehicle id="veh584" type="emergency" route="r_9" depart="233.05" />
    <vehicle id="veh176" type="passenger" route="r_5" depart="236.24" />
    <vehicle id="veh191" type="truck" route="r_5" depart="237.35" />
    <vehicle id="veh668" type="taxi" route="r_11" depart="240.22" />
    <vehicle id="veh659" type="passenger/sedan" route="r_11" depart="240.69" />
    <vehicle id="veh732" type="CarA" route="r_11" depart="245.91" />
    <vehicle id="veh340" type="police" route="r_5" depart="246.17" />
    <vehicle id="veh491" type="CarC" route="r_6" depart="248.53" />
    <vehicle id="veh597" type="passenger" route="r_10" depart="248.82" />
    <vehicle id="veh161" type="police" route="r_5" depart="248.98" />
    <vehicle id="veh268" type="CarC" route="r_5" depart="255.92" />
    <vehicle id="veh524" type="bus" route="r_7" depart="261.92" />
    <vehicle id="veh791" type="truck" route="r_11" depart="263.31" />
    <vehicle id="veh313" type="passenger/sedan" route="r_5" depart="264.63" />
    <vehicle id="veh714" type="CarA" route="r_11" depart="267.48" />
    <vehicle id="veh439" type="police" route="r_5" depart="268.21" />
    <vehicle id="veh742" type="police" route="r_11" depart="272.27" />
    <vehicle id="veh114" type="passenger" route="r_3" depart="273.14" />
    <vehicle id="veh825" type="taxi" route="r_11" depart="277.53" />
    <vehicle id="veh380" type="truck" route="r_5" depart="277.98" />
    <vehicle id="veh671" type="CarA" route="r_11" depart="284.16" />
    <vehicle id="veh4" type="passenger" route="r_0" depart="285.18" />
    <vehicle id="veh49" type="CarC" route="r_1" depart="287.31" />
    <vehicle id="veh186" type="passenger/wagon" route="r_5" depart="290.24" />
    <vehicle id="veh337" type="passenger/hatchback" route="r_5" depart="293.91" />
    <vehicle id="veh493" type="passenger/sedan" route="r_6" depart="294.72" />
    <vehicle id="veh3" type="bus" route="r_0" depart="296.06" />
    <vehicle id="veh331" type="bus" route="r_5" depart="299.58" />
    <vehicle id="veh193" type="delivery" route="r_5" depart="300.66" />
    <vehicle id="veh782" type="CarA" route="r_11" depart="303.10" />
    <vehicle id="veh677" type="passenger/wagon" route="r_11" depart="306.47" />
    <vehicle id="veh773" type="CarA" route="r_11" depart="314.45" />
    <vehicle id="veh354" type="CarB" route="r_5" depart="314.82" />
    <vehicle id="veh566" type="CarC" route="r_9" depart="317.34" />
    <vehicle id="veh142" type="passenger/sedan" route="r_4" depart="320.33" />
    <vehicle id="veh793" type="passenger/wagon" route="r_11" depart="320.44" />
    <vehicle id="veh504" type="passenger/sedan" route="r_6" depart="322.10" />
    <vehicle id="veh190" type="CarA" route="r_5" depart="325.86" />
    <vehicle id="veh430" type="CarC" route="r_5" depart="330.83" />
    <vehicle id="veh572" type="CarB" route="r_9" depart="330.87" />
    <vehicle id="veh175" type="passenger/hatchback" route="r_5" depart="332.37" />
    <vehicle id="veh794" type="passenger/van" route="r_11" depart="333.45" />
    <vehicle id="veh334" type="passenger" route="r_5" depart="336.51" />
    <vehicle id="veh736" type="CarA" route="r_11" depart="338.74" />
    <vehicle id="veh810" type="bus" route="r_11" depart="339.43" />
    <vehicle id="veh606" type="passenger" route="r_10" depart="347.62" />
    <vehicle id="veh706" type="taxi" route="r_11" depart="351.63" />
    <vehicle id="veh141" type="police" route="r_4" depart="353.01" />
    <vehicle id="veh604" type="passenger/hatchback" route="r_10" depart="354.51" />
    <vehicle id="veh130" type="CarC" route="r_4" depart="355.52" />
    <vehicle id="veh117" type="truck" route="r_3" depart="356.54" />
    <vehicle id="veh274" type="passenger/van" route="r_5" depart="359.30" />
    <vehicle id="veh418" type="CarB" route="r_5" depart="359.32" />
    <vehicle id="veh78" type="police" route="r_2" depart="360.85" />
    <vehicle id="veh440" type="passenger/sedan" route="r_5" depart="366.28" />
    <vehicle id="veh335" type="CarB" route="r_5" depart="367.94" />
    <vehicle id="veh40" type="passenger" route="r_1" depart="368.17" />
    <vehicle id="veh428" type="bus" route="r_5" depart="369.02" />
    <vehicle id="veh221" type="passenger" route="r_5" depart="371.53" />
    <vehicle id="veh68" type="CarC" route="r_2" depart="373.32" />
    <vehicle id="veh771" type="truck" route="r_11" depart="377.55" />
    <vehicle id="veh585" type="truck" route="r_9" depart="377.98" />
    <vehicle id="veh781" type="taxi" route="r_11" depart="378.03" />
    <vehicle id="veh59" type="CarB" route="r_2" depart="380.36" />
    <vehicle id="veh426" type="truck" route="r_5" depart="381.36" />
    <vehicle id="veh675" type="CarD" route="r_11" depart="381.88" />
    <vehicle id="veh201" type="taxi" route="r_5" depart="382.37" />
    <vehicle id="veh240" type="passenger/sedan" route="r_5" depart="384.27" />
    <vehicle id="veh720" type="CarA" route="r_11" depart="387.96" />
    <vehicle id="veh635" type="passenger/van" route="r_11" depart="389.39" />
    <vehicle id="veh148" type="passenger/hatchback" route="r_4" depart="391.29" />
    <vehicle id="veh565" type="CarB" route="r_9" depart="393.66" />
    <vehicle id="veh756" type="delivery" route="r_11" depart="395.72" />
    <vehicle id="veh101" type="truck" route="r_3" depart="396.26" />
    <vehicle id="veh743" type="taxi" route="r_11" depart="397.87" />
    <vehicle id="veh537" type="passenger/van" route="r_8" depart="398.79" />
    <vehicle id="veh433" type="emergency" route="r_5" depart="408.71" />
    <vehicle id="veh174" type="taxi" route="r_5" depart="409.93" />
    <vehicle id="veh857" type="passenger/sedan" route="r_11" depart="411.89" />
    <vehicle id="veh300" type="passenger/van" route="r_5" depart="416.66" />
    <vehicle id="veh838" type="delivery" route="r_11" depart="417.51" />
    <vehicle id="veh534" type="truck" route="r_8" depart="423.85" />
    <vehicle id="veh715" type="bus" route="r_11" depart="425.75" />
    <vehicle id="veh93" type="passenger/van" route="r_3" depart="425.85" />
    <vehicle id="veh443" type="passenger/wagon" route="r_5" depart="427.84" />
    <vehicle id="veh382" type="police" route="r_5" depart="430.75" />
    <vehicle id="veh140" type="CarD" route="r_4" depart="433.46" />
    <vehicle id="veh562" type="truck" route="r_8" depart="434.82" />
    <vehicle id="veh827" type="CarA" route="r_11" depart="441.61" />
    <vehicle id="veh42" type="bus" route="r_1" depart="442.11" />
    <vehicle id="veh600" type="CarC" route="r_10" depart="442.27" />
    <vehicle id="veh168" type="truck" route="r_5" depart="447.04" />
    <vehicle id="veh571" type="passenger" route="r_9" depart="448.96" />
    <vehicle id="veh841" type="bus" route="r_11" depart="450.83" />
    <vehicle id="veh837" type="emergency" route="r_11" depart="452.25" />
    <vehicle id="veh533" type="bus" route="r_8" depart="454.09" />
    <vehicle id="veh760" type="bus" route="r_11" depart="457.33" />
    <vehicle id="veh775" type="delivery" route="r_11" depart="459.01" />
    <vehicle id="veh442" type="truck" route="r_5" depart="463.18" />
    <vehicle id="veh124" type="CarB" route="r_4" depart="467.54" />
    <vehicle id="veh695" type="passenger" route="r_11" depart="470.21" />
    <vehicle id="veh397" type="CarB" route="r_5" depart="476.21" />
    <vehicle id="veh366" type="CarB" route="r_5" depart="477.77" />
    <vehicle id="veh370" type="rail" route="r_5" depart="481.51" />
    <vehicle id="veh561" type="taxi" route="r_8" depart="481.95" />
    <vehicle id="veh802" type="bus" route="r_11" depart="482.77" />
    <vehicle id="veh245" type="passenger/sedan" route="r_5" depart="483.69" />
    <vehicle id="veh542" type="delivery" route="r_8" depart="488.67" />
    <vehicle id="veh796" type="passenger" route="r_11" depart="490.42" />
    <vehicle id="veh249" type="police" route="r_5" depart="495.81" />
    <vehicle id="veh48" type="passenger/sedan" route="r_1" depart="497.53" />
    <vehicle id="veh262" type="passenger/hatchback" route="r_5" depart="497.68" />
    <vehicle id="veh653" type="emergency" route="r_11" depart="500.60" />
    <vehicle id="veh85" type="passenger" route="r_2" depart="501.18" />
    <vehicle id="veh484" type="passenger" route="r_6" depart="502.40" />
    <vehicle id="veh131" type="passenger/sedan" route="r_4" depart="506.66" />
    <vehicle id="veh298" type="CarA" route="r_5" depart="507.20" />
    <vehicle id="veh367" type="CarD" route="r_5" depart="511.73" />
    <vehicle id="veh217" type="CarB" route="r_5" depart="514.99" />
    <vehicle id="veh780" type="passenger" route="r_11" depart="515.32" />
    <vehicle id="veh662" type="truck" route="r_11" depart="515.50" />
    <vehicle id="veh681" type="passenger/van" route="r_11" depart="515.72" />
    <vehicle id="veh333" type="passenger/van" route="r_5" depart="515.74" />
    <vehicle id="veh419" type="police" route="r_5" depart="518.19" />
    <vehicle id="veh551" type="bus" route="r_8" depart="518.35" />
    <vehicle id="veh757" type="CarB" route="r_11" depart="518.63" />
    <vehicle id="veh748" type="CarD" route="r_11" depart="519.64" />
    <vehicle id="veh226" type="passenger" route="r_5" depart="523.34" />
    <vehicle id="veh434" type="delivery" route="r_5" depart="529.33" />
    <vehicle id="veh512" type="passenger/hatchback" route="r_7" depart="533.03" />
    <vehicle id="veh97" type="police" route="r_3" depart="534.82" />
    <vehicle id="veh672" type="taxi" route="r_11" depart="535.78" />
    <vehicle id="veh136" type="passenger/hatchback" route="r_4" depart="536.47" />
    <vehicle id="veh228" type="CarD" route="r_5" depart="542.60" />
    <vehicle id="veh219" type="CarB" route="r_5" depart="550.06" />
    <vehicle id="veh785" type="bus" route="r_11" depart="550.89" />
    <vehicle id="veh738" type="passenger/sedan" route="r_11" depart="551.04" />
    <vehicle id="veh413" type="CarC" route="r_5" depart="556.25" />
    <vehicle id="veh297" type="bus" route="r_5" depart="561.85" />
    <vehicle id="veh365" type="emergency" route="r_5" depart="564.56" />
    <vehicle id="veh438" type="CarA" route="r_5" depart="566.45" />
    <vehicle id="veh665" type="passenger/hatchback" route="r_11" depart="572.49" />
    <vehicle id="veh531" type="truck" route="r_8" depart="576.20" />
    <vehicle id="veh453" type="CarD" route="r_5" depart="576.79" />
    <vehicle id="veh144" type="passenger/hatchback" route="r_4" depart="579.84" />
    <vehicle id="veh617" type="bus" route="r_11" depart="580.88" />
    <vehicle id="veh30" type="CarD" route="r_1" depart="581.48" />
    <vehicle id="veh495" type="emergency" route="r_6" depart="582.50" />
    <vehicle id="veh50" type="CarD" route="r_1" depart="583.05" />
    <vehicle id="veh686" type="passenger/hatchback" route="r_11" depart="586.42" />
    <vehicle id="veh466" type="passenger/wagon" route="r_5" depart="588.53" />
    <vehicle id="veh623" type="truck" route="r_11" depart="591.66" />
    <vehicle id="veh35" type="emergency" route="r_1" depart="595.97" />
    <vehicle id="veh514" type="passenger" route="r_7" depart="598.75" />
    <vehicle id="veh711" type="passenger/sedan" route="r_11" depart="599.19" />
    <vehicle id="veh211" type="bus" route="r_5" depart="603.62" />
    <vehicle id="veh234" type="passenger" route="r_5" depart="604.16" />
    <vehicle id="veh25" type="emergency" route="r_1" depart="607.05" />
    <vehicle id="veh147" type="CarC" route="r_4" depart="610.27" />
    <vehicle id="veh320" type="passenger/wagon" route="r_5" depart="613.55" />
    <vehicle id="veh312" type="passenger/sedan" route="r_5" depart="615.32" />
    <vehicle id="veh149" type="emergency" route="r_4" depart="621.23" />
    <vehicle id="veh122" type="CarB" route="r_4" depart="624.91" />
    <vehicle id="veh67" type="CarB" route="r_2" depart="626.48" />
    <vehicle id="veh701" type="CarB" route="r_11" depart="632.20" />
    <vehicle id="veh722" type="rail" route="r_11" depart="637.39" />
    <vehicle id="veh609" type="CarC" route="r_10" depart="637.86" />
    <vehicle id="veh96" type="delivery" route="r_3" depart="640.78" />
    <vehicle id="veh692" type="rail" route="r_11" depart="640.85" />
    <vehicle id="veh632" type="delivery" route="r_11" depart="643.72" />
    <vehicle id="veh214" type="passenger/sedan" route="r_5" depart="645.96" />
    <vehicle id="veh680" type="police" route="r_11" depart="651.90" />
    <vehicle id="veh90" type="passenger/hatchback" route="r_3" depart="652.01" />
    <vehicle id="veh464" type="CarC" route="r_5" depart="653.17" />
    <vehicle id="veh231" type="emergency" route="r_5" depart="655.56" />
    <vehicle id="veh315" type="passenger/van" route="r_5" depart="655.71" />
    <vehicle id="veh790" type="CarD" route="r_11" depart="666.23" />
    <vehicle id="veh188" type="taxi" route="r_5" depart="671.86" />
    <vehicle id="veh401" type="passenger/hatchback" route="r_5" depart="671.96" />
    <vehicle id="veh451" type="delivery" route="r_5" depart="672.50" />
    <vehicle id="veh398" type="truck" route="r_5" depart="680.49" />
    <vehicle id="veh809" type="taxi" route="r_11" depart="680.52" />
    <vehicle id="veh80" type="CarD" route="r_2" depart="680.73" />
    <vehicle id="veh829" type="rail" route="r_11" depart="681.30" />
    <vehicle id="veh109" type="delivery" route="r_3" depart="684.64" />
    <vehicle id="veh801" type="CarC" route="r_11" depart="684.92" />
    <vehicle id="veh563" type="truck" route="r_8" depart="686.24" />
    <vehicle id="veh119" type="passenger/van" route="r_4" depart="687.73" />
    <vehicle id="veh379" type="passenger/van" route="r_5" depart="687.82" />
    <vehicle id="veh183" type="passenger" route="r_5" depart="687.96" />
    <vehicle id="veh860" type="CarD" route="r_11" depart="688.16" />
    <vehicle id="veh689" type="passenger/van" route="r_11" depart="688.98" />
    <vehicle id="veh284" type="bus" route="r_5" depart="689.30" />
    <vehicle id="veh371" type="taxi" route="r_5" depart="697.88" />
    <vehicle id="veh236" type="passenger/hatchback" route="r_5" depart="700.20" />
    <vehicle id="veh425" type="truck" route="r_5" depart="700.42" />
    <vehicle id="veh348" type="emergency" route="r_5" depart="701.22" />
    <vehicle id="veh17" type="CarB" route="r_0" depart="701.94" />
    <vehicle id="veh395" type="passenger/wagon" route="r_5" depart="707.49" />
    <vehicle id="veh381" type="CarA" route="r_5" depart="709.81" />
    <vehicle id="veh574" type="passenger/van" route="r_9" depart="710.38" />
    <vehicle id="veh842" type="CarA" route="r_11" depart="713.32" />
    <vehicle id="veh155" type="CarC" route="r_4" depart="718.09" />
    <vehicle id="veh616" type="passenger" route="r_11" depart="718.17" />
    <vehicle id="veh427" type="CarB" route="r_5" depart="718.81" />
    <vehicle id="veh351" type="truck" route="r_5" depart="720.56" />
    <vehicle id="veh540" type="passenger/hatchback" route="r_8" depart="722.05" />
    <vehicle id="veh708" type="CarA" route="r_11" depart="722.97" />
    <vehicle id="veh759" type="passenger/sedan" route="r_11" depart="725.30" />
    <vehicle id="veh363" type="emergency" route="r_5" depart="731.93" />
    <vehicle id="veh321" type="delivery" route="r_5" depart="732.20" />
    <vehicle id="veh545" type="CarA" route="r_8" depart="735.02" />
    <vehicle id="veh712" type="truck" route="r_11" depart="736.87" />
    <vehicle id="veh725" type="passenger/hatchback" route="r_11" depart="736.87" />
    <vehicle id="veh437" type="passenger/wagon" route="r_5" depart="739.97" />
    <vehicle id="veh6" type="passenger/hatchback" route="r_0" depart="743.87" />
    <vehicle id="veh20" type="CarC" route="r_0" depart="744.69" />
    <vehicle id="veh502" type="passenger/wagon" route="r_6" depart="745.41" />
    <vehicle id="veh657" type="CarD" route="r_11" depart="745.96" />
    <vehicle id="veh19" type="passenger/sedan" route="r_0" depart="747.45" />
    <vehicle id="veh146" type="passenger/hatchback" route="r_4" depart="747.77" />
    <vehicle id="veh727" type="rail" route="r_11" depart="751.50" />
    <vehicle id="veh99" type="police" route="r_3" depart="754.57" />
    <vehicle id="veh599" type="passenger/wagon" route="r_10" depart="755.07" />
    <vehicle id="veh740" type="CarD" route="r_11" depart="759.69" />
    <vehicle id="veh169" type="delivery" route="r_5" depart="761.50" />
    <vehicle id="veh233" type="rail" route="r_5" depart="763.28" />
    <vehicle id="veh349" type="truck" route="r_5" depart="765.84" />
    <vehicle id="veh291" type="passenger/sedan" route="r_5" depart="766.83" />
    <vehicle id="veh356" type="police" route="r_5" depart="771.61" />
    <vehicle id="veh612" type="CarD" route="r_10" depart="771.86" />
    <vehicle id="veh547" type="CarC" route="r_8" depart="772.71" />
    <vehicle id="veh472" type="emergency" route="r_5" depart="772.76" />
    <vehicle id="veh707" type="passenger/sedan" route="r_11" depart="775.40" />
    <vehicle id="veh716" type="bus" route="r_11" depart="777.91" />
    <vehicle id="veh560" type="rail" route="r_8" depart="779.41" />
    <vehicle id="veh583" type="CarA" route="r_9" depart="780.99" />
    <vehicle id="veh394" type="passenger" route="r_5" depart="791.51" />
    <vehicle id="veh87" type="rail" route="r_3" depart="794.99" />
    <vehicle id="veh222" type="passenger/hatchback" route="r_5" depart="795.84" />
    <vehicle id="veh624" type="CarC" route="r_11" depart="797.05" />
    <vehicle id="veh336" type="truck" route="r_5" depart="797.76" />
    <vehicle id="veh215" type="taxi" route="r_5" depart="798.06" />
    <vehicle id="veh696" type="CarA" route="r_11" depart="805.89" />
    <vehicle id="veh288" type="police" route="r_5" depart="808.06" />
    <vehicle id="veh507" type="passenger/sedan" route="r_7" depart="809.31" />
    <vehicle id="veh805" type="taxi" route="r_11" depart="812.22" />
    <vehicle id="veh812" type="police" route="r_11" depart="812.32" />
    <vehicle id="veh272" type="bus" route="r_5" depart="814.05" />
    <vehicle id="veh322" type="CarB" route="r_5" depart="816.45" />
    <vehicle id="veh56" type="passenger/hatchback" route="r_2" depart="817.54" />
    <vehicle id="veh555" type="taxi" route="r_8" depart="818.75" />
    <vehicle id="veh546" type="taxi" route="r_8" depart="818.78" />
    <vehicle id="veh787" type="delivery" route="r_11" depart="819.82" />
    <vehicle id="veh421" type="delivery" route="r_5" depart="822.37" />
    <vehicle id="veh16" type="passenger/sedan" route="r_0" depart="824.61" />
    <vehicle id="veh254" type="passenger/hatchback" route="r_5" depart="830.38" />
    <vehicle id="veh470" type="CarB" route="r_5" depart="832.03" />
    <vehicle id="veh60" type="passenger/van" route="r_2" depart="833.34" />
    <vehicle id="veh158" type="rail" route="r_5" depart="834.51" />
    <vehicle id="veh594" type="passenger/sedan" route="r_10" depart="835.13" />