<routes>

        <!-- vehicle types (changes made : accelx2, decelx2, maxSpeedx2) -->
        <vType accel="6.0" decel="12.0" id="CarA" length="5.0" minGap="2.5" maxSpeed="100.0" sigma="0.5" color="20,20,20" /> 
        <vType accel="4.0" decel="12.0" id="CarB" length="4.5" minGap="2.5" maxSpeed="100.0" sigma="0.5" color="255,255,255" />
        <vType accel="2.0" decel="10.0" id="CarC" length="5.0" minGap="2.5" maxSpeed="80.0" sigma="0.5" color="128,0,0" />
        <vType accel="2.0" decel="10.0" id="CarD" length="6.0" minGap="2.5" maxSpeed="60.0" sigma="0.5" color="0,128,0" />
        <vType accel="4.0" decel="10.0" id="bus" guiShape="bus" length="11.0" minGap="2.5" maxSpeed="80.0" sigma="0.5" color="0,128,128" />
        <vType accel="6.0" decel="12.0" id="passenger" guiShape="passenger" minGap="2.5" maxSpeed="100.0" color="0,255,0" sigma="0.5" />
        <vType accel="6.0" decel="12.0" id="taxi" guiShape="taxi" minGap="2.5" maxSpeed="100.0" sigma="0.5" color="255,165,0" />
        <vType accel="8.0" decel="14.0" id="police" guiShape="police" minGap="2.5" maxSpeed="120.0" sigma="0.5" /> 
        <vType accel="4.0" decel="12.0" id="emergency" guiShape="emergency" minGap="2.5" maxSpeed="120.0" sigma="0.5" />
        <vType accel="2.0" decel="8.0" id="rail" guiShape="rail" minGap="2.5" maxSpeed="60.0" sigma="0.5" color="255,0,128" />
        <vType accel="4.0" decel="8.0" id="truck" guiShape="truck" minGap="2.5" maxSpeed="80.0" sigma="0.5" color="0,255,255" />
        <vType accel="6.0" decel="12.0" id="delivery" guiShape="delivery" minGap="2.5" maxSpeed="100.0" sigma="0.5" color="255,128,128" />
        <vType accel="6.0" decel="12.0" id="passenger/hatchback" guiShape="passenger/hatchback" minGap="2.5" maxSpeed="100.0" sigma="0.5" color="144,238,144" />
        <vType accel="6.0" decel="12.0" id="passenger/sedan" guiShape="passenger/sedan" minGap="2.5" maxSpeed="100.0" sigma="0.5" color="218,165,32" />
        <vType accel="6.0" decel="10.0" id="passenger/wagon" guiShape="passenger/wagon" minGap="2.5" maxSpeed="110.0" sigma="0.5" color="255,192,203" />
        <vType accel="8.0" decel="12.0" id="passenger/van" guiShape="passenger/van" minGap="2.5" maxSpeed="100.0" sigma="0.5" color="173,216,230" />           
        <vType vClass="pedestrian" id="ped0" guiShape="pedestrian" speedFactor="0.7" width="0.66" length="0.36" height="1.65" color="255,0,128" />
        <vType vClass="pedestrian" id="ped1" guiShape="pedestrian" speedFactor="0.7" width="0.59" length="0.38" height="1.73" color="255,165,0" />
        <vType vClass="pedestrian" id="ped2" guiShape="pedestrian" speedFactor="1.0" width="0.55" length="0.34" height="1.60" color="255,128,128" />
        <vType vClass="pedestrian" id="ped3" guiShape="pedestrian" speedFactor="1.0" width="0.60" length="0.40" height="1.75" color="144,238,144" />
        <vType vClass="pedestrian" id="ped4" guiShape="pedestrian" speedFactor="1.3" width="0.58" length="0.37" height="1.68" color="128,128,255" />
        <vType vClass="pedestrian" id="ped5" guiShape="pedestrian" speedFactor="1.3" width="0.57" length="0.39" height="1.70" color="100,87,240" />
        <!-- Routes -->
    <route id="r_0" edges="L16 L10"/>
    <route id="r_1" edges="L9 -E0"/>
    <route id="r_2" edges="L12 -E0"/>
    <route id="r_3" edges="E0 L15"/>
    <route id="r_4" edges="E0 L10"/>
    <route id="r_5" edges="L9 L11"/>
    <route id="r_6" edges="L9 L15"/>
    <route id="r_7" edges="E0 L11"/>
    <route id="r_8" edges="L12 L15"/>
    <route id="r_9" edges="L16 -E0"/>
    <route id="r_10" edges="L16 L11"/>
    <route id="r_11" edges="L12 L10"/>

    <!-- Pedestrian Routes -->
    <route id="ped_r_0" edges="L16 L9"/>
    <route id="ped_r_1" edges="L16 L12"/>
    <route id="ped_r_2" edges="L16 E0"/>
    <route id="ped_r_3" edges="L16 L10"/>
    <route id="ped_r_4" edges="L16 -E0"/>
    <route id="ped_r_5" edges="L16 L15"/>
    <route id="ped_r_6" edges="L16 L11"/>
    <route id="ped_r_7" edges="L9 L16"/>
    <route id="ped_r_8" edges="L9 L12"/>
    <route id="ped_r_9" edges="L9 E0"/>
    <route id="ped_r_10" edges="L9 L10"/>
    <route id="ped_r_11" edges="L9 -E0"/>
    <route id="ped_r_12" edges="L9 L15"/>
    <route id="ped_r_13" edges="L9 L11"/>
    <route id="ped_r_14" edges="L12 L16"/>
    <route id="ped_r_15" edges="L12 L9"/>
    <route id="ped_r_16" edges="L12 E0"/>
    <route id="ped_r_17" edges="L12 L10"/>
    <route id="ped_r_18" edges="L12 -E0"/>
    <route id="ped_r_19" edges="L12 L15"/>
    <route id="ped_r_20" edges="L12 L11"/>
    <route id="ped_r_21" edges="E0 L16"/>
    <route id="ped_r_22" edges="E0 L9"/>
    <route id="ped_r_23" edges="E0 L12"/>
    <route id="ped_r_24" edges="E0 L10"/>
    <route id="ped_r_25" edges="E0 -E0"/>
    <route id="ped_r_26" edges="E0 L15"/>
    <route id="ped_r_27" edges="E0 L11"/>
    <route id="ped_r_28" edges="L10 L16"/>
    <route id="ped_r_29" edges="L10 L9"/>
    <route id="ped_r_30" edges="L10 L12"/>
    <route id="ped_r_31" edges="L10 E0"/>
    <route id="ped_r_32" edges="L10 -E0"/>
    <route id="ped_r_33" edges="L10 L15"/>
    <route id="ped_r_34" edges="L10 L11"/>
    <route id="ped_r_35" edges="-E0 L16"/>
    <route id="ped_r_36" edges="-E0 L9"/>
    <route id="ped_r_37" edges="-E0 L12"/>
    <route id="ped_r_38" edges="-E0 E0"/>
    <route id="ped_r_39" edges="-E0 L10"/>
    <route id="ped_r_40" edges="-E0 L15"/>
    <route id="ped_r_41" edges="-E0 L11"/>
    <route id="ped_r_42" edges="L15 L16"/>
    <route id="ped_r_43" edges="L15 L9"/>
    <route id="ped_r_44" edges="L15 L12"/>
    <route id="ped_r_45" edges="L15 E0"/>
    <route id="ped_r_46" edges="L15 L10"/>
    <route id="ped_r_47" edges="L15 -E0"/>
    <route id="ped_r_48" edges="L15 L11"/>
    <route id="ped_r_49" edges="L11 L16"/>
    <route id="ped_r_50" edges="L11 L9"/>
    <route id="ped_r_51" edges="L11 L12"/>
    <route id="ped_r_52" edges="L11 E0"/>
    <route id="ped_r_53" edges="L11 L10"/>
    <route id="ped_r_54" edges="L11 -E0"/>
    <route id="ped_r_55" edges="L11 L15"/>

    <!-- vehicles -->
    <vehicle id="veh561" type="delivery" route="r_4" depart="0.20" />
    <vehicle id="veh234" type="passenger/van" route="r_2" depart="2.89" />
    <vehicle id="veh251" type="CarA" route="r_2" depart="2.95" />
    <vehicle id="veh1067" type="passenger/wagon" route="r_9" depart="3.11" />
    <vehicle id="veh1047" type="rail" route="r_9" depart="3.14" />
    <vehicle id="veh39" type="CarB" route="r_0" depart="3.27" />
    <vehicle id="veh132" type="passenger/hatchback" route="r_1" depart="4.68" />
    <vehicle id="veh877" type="rail" route="r_7" depart="5.42" />
    <vehicle id="veh384" type="passenger/wagon" route="r_3" depart="6.14" />
    <vehicle id="veh111" type="bus" route="r_0" depart="6.60" />
    <vehicle id="veh719" type="passenger/sedan" route="r_6" depart="7.08" />
    <vehicle id="veh1144" type="CarA" route="r_9" depart="7.56" />
    <vehicle id="veh249" type="rail" route="r_2" depart="7.59" />
    <vehicle id="veh1101" type="emergency" route="r_9" depart="9.20" />
    <vehicle id="veh526" type="police" route="r_4" depart="9.33" />
    <vehicle id="veh1358" type="passenger/sedan" route="r_11" depart="9.58" />
    <vehicle id="veh268" type="delivery" route="r_2" depart="10.85" />
    <vehicle id="veh5" type="CarA" route="r_0" depart="12.62" />
    <vehicle id="veh462" type="bus" route="r_3" depart="12.80" />
    <vehicle id="veh1076" type="passenger" route="r_9" depart="13.99" />
    <vehicle id="veh1069" type="bus" route="r_9" depart="13.99" />
    <vehicle id="veh764" type="rail" route="r_6" depart="14.11" />
    <vehicle id="veh1009" type="passenger" route="r_8" depart="16.23" />
    <vehicle id="veh252" type="emergency" route="r_2" depart="18.59" />
    <vehicle id="veh490" type="passenger/wagon" route="r_4" depart="18.90" />
    <vehicle id="veh827" type="CarD" route="r_7" depart="19.94" />
    <vehicle id="veh706" type="truck" route="r_5" depart="20.41" />
    <vehicle id="veh623" type="CarD" route="r_5" depart="21.29" />
    <vehicle id="veh865" type="passenger/hatchback" route="r_7" depart="22.29" />
    <vehicle id="veh484" type="passenger/van" route="r_4" depart="22.78" />
    <vehicle id="veh1244" type="truck" route="r_10" depart="24.16" />
    <vehicle id="veh845" type="emergency" route="r_7" depart="25.66" />
    <vehicle id="veh32" type="taxi" route="r_0" depart="26.63" />
    <vehicle id="veh219" type="passenger/sedan" route="r_1" depart="27.25" />
    <vehicle id="veh636" type="police" route="r_5" depart="27.40" />
    <vehicle id="veh665" type="CarD" route="r_5" depart="31.27" />
    <vehicle id="veh1233" type="emergency" route="r_10" depart="33.87" />
    <vehicle id="veh72" type="CarA" route="r_0" depart="35.11" />
    <vehicle id="veh1014" type="passenger/sedan" route="r_8" depart="36.68" />
    <vehicle id="veh125" type="police" route="r_1" depart="37.00" />
    <vehicle id="veh1063" type="police" route="r_9" depart="37.65" />
    <vehicle id="veh1204" type="CarB" route="r_10" depart="38.48" />
    <vehicle id="veh160" type="passenger/van" route="r_1" depart="38.60" />
    <vehicle id="veh577" type="CarB" route="r_4" depart="41.13" />
    <vehicle id="veh74" type="CarC" route="r_0" depart="43.95" />
    <vehicle id="veh909" type="rail" route="r_7" depart="46.75" />
    <vehicle id="veh1349" type="passenger/van" route="r_11" depart="47.67" />
    <vehicle id="veh1289" type="CarC" route="r_11" depart="49.85" />
    <vehicle id="veh198" type="CarB" route="r_1" depart="52.42" />
    <vehicle id="veh1384" type="bus" route="r_11" depart="52.78" />
    <vehicle id="veh694" type="delivery" route="r_5" depart="53.18" />
    <vehicle id="veh1280" type="CarA" route="r_10" depart="55.85" />
    <vehicle id="veh1207" type="passenger/sedan" route="r_10" depart="57.61" />
    <vehicle id="veh741" type="rail" route="r_6" depart="61.66" />
    <vehicle id="veh1265" type="CarB" route="r_10" depart="63.26" />
    <vehicle id="veh1387" type="taxi" route="r_11" depart="64.92" />
    <vehicle id="veh922" type="CarA" route="r_7" depart="65.10" />
    <vehicle id="veh1042" type="delivery" route="r_8" depart="66.71" />
    <vehicle id="veh388" type="bus" route="r_3" depart="67.77" />
    <vehicle id="veh1082" type="CarC" route="r_9" depart="67.86" />
    <vehicle id="veh1077" type="passenger/van" route="r_9" depart="68.76" />
    <vehicle id="veh1022" type="CarA" route="r_8" depart="71.48" />
    <vehicle id="veh733" type="bus" route="r_6" depart="72.04" />
    <vehicle id="veh620" type="passenger/wagon" route="r_5" depart="72.75" />
    <vehicle id="veh373" type="passenger/wagon" route="r_3" depart="78.18" />
    <vehicle id="veh1064" type="passenger/hatchback" route="r_9" depart="78.69" />
    <vehicle id="veh884" type="CarA" route="r_7" depart="79.86" />
    <vehicle id="veh59" type="passenger/hatchback" route="r_0" depart="80.21" />
    <vehicle id="veh1010" type="taxi" route="r_8" depart="80.51" />
    <vehicle id="veh1314" type="passenger/van" route="r_11" depart="81.26" />
    <vehicle id="veh1108" type="passenger" route="r_9" depart="85.38" />
    <vehicle id="veh360" type="CarD" route="r_3" depart="86.37" />
    <vehicle id="veh1266" type="CarB" route="r_10" depart="88.49" />
    <vehicle id="veh1034" type="passenger/wagon" route="r_8" depart="89.49" />
    <vehicle id="veh1287" type="police" route="r_11" depart="90.75" />
    <vehicle id="veh700" type="CarB" route="r_5" depart="91.96" />
    <vehicle id="veh1159" type="CarC" route="r_9" depart="92.12" />
    <vehicle id="veh68" type="rail" route="r_0" depart="93.22" />
    <vehicle id="veh151" type="CarC" route="r_1" depart="93.74" />
    <vehicle id="veh575" type="taxi" route="r_4" depart="99.47" />
    <vehicle id="veh324" type="emergency" route="r_2" depart="99.75" />
    <vehicle id="veh1176" type="police" route="r_10" depart="100.91" />
    <vehicle id="veh744" type="passenger/sedan" route="r_6" depart="100.96" />
    <vehicle id="veh215" type="truck" route="r_1" depart="101.47" />
    <vehicle id="veh1142" type="taxi" route="r_9" depart="103.44" />
    <vehicle id="veh372" type="truck" route="r_3" depart="104.84" />
    <vehicle id="veh1397" type="police" route="r_11" depart="105.72" />
    <vehicle id="veh411" type="CarC" route="r_3" depart="105.76" />
    <vehicle id="veh976" type="emergency" route="r_8" depart="106.14" />
    <vehicle id="veh447" type="CarB" route="r_3" depart="106.51" />
    <vehicle id="veh155" type="passenger" route="r_1" depart="106.94" />
    <vehicle id="veh1053" type="passenger/sedan" route="r_9" depart="109.11" />
    <vehicle id="veh109" type="CarC" route="r_0" depart="109.55" />
    <vehicle id="veh445" type="emergency" route="r_3" depart="120.04" />
    <vehicle id="veh1300" type="CarA" route="r_11" depart="120.07" />
    <vehicle id="veh1135" type="emergency" route="r_9" depart="120.10" />
    <vehicle id="veh61" type="delivery" route="r_0" depart="120.59" />
    <vehicle id="veh715" type="police" route="r_6" depart="120.83" />
    <vehicle id="veh144" type="CarA" route="r_1" depart="122.85" />
    <vehicle id="veh1107" type="delivery" route="r_9" depart="123.79" />
    <vehicle id="veh1406" type="passenger" route="r_11" depart="123.86" />
    <vehicle id="veh212" type="passenger/hatchback" route="r_1" depart="125.04" />
    <vehicle id="veh1036" type="police" route="r_8" depart="125.13" />
    <vehicle id="veh647" type="CarC" route="r_5" depart="126.33" />
    <vehicle id="veh150" type="taxi" route="r_1" depart="126.51" />
    <vehicle id="veh650" type="CarA" route="r_5" depart="127.45" />
    <vehicle id="veh1270" type="emergency" route="r_10" depart="127.74" />
    <vehicle id="veh165" type="bus" route="r_1" depart="127.90" />
    <vehicle id="veh937" type="CarC" route="r_8" depart="128.03" />
    <vehicle id="veh619" type="passenger/van" route="r_5" depart="128.52" />
    <vehicle id="veh609" type="truck" route="r_5" depart="130.46" />
    <vehicle id="veh1013" type="truck" route="r_8" depart="131.65" />
    <vehicle id="veh1241" type="taxi" route="r_10" depart="131.95" />
    <vehicle id="veh448" type="delivery" route="r_3" depart="132.00" />
    <vehicle id="veh158" type="passenger/wagon" route="r_1" depart="134.34" />
    <vehicle id="veh881" type="CarD" route="r_7" depart="134.98" />
    <vehicle id="veh1074" type="passenger/hatchback" route="r_9" depart="135.38" />
    <vehicle id="veh340" type="CarC" route="r_2" depart="135.99" />
    <vehicle id="veh421" type="police" route="r_3" depart="136.39" />
    <vehicle id="veh754" type="passenger/hatchback" route="r_6" depart="136.76" />
    <vehicle id="veh472" type="passenger/wagon" route="r_4" depart="144.81" />
    <vehicle id="veh1377" type="CarC" route="r_11" depart="148.36" />
    <vehicle id="veh1341" type="passenger/sedan" route="r_11" depart="148.59" />
    <vehicle id="veh929" type="truck" route="r_7" depart="149.88" />
    <vehicle id="veh1329" type="passenger/wagon" route="r_11" depart="154.81" />
    <vehicle id="veh141" type="CarB" route="r_1" depart="155.33" />
    <vehicle id="veh1334" type="CarD" route="r_11" depart="155.50" />
    <vehicle id="veh1234" type="passenger/hatchback" route="r_10" depart="155.74" />
    <vehicle id="veh429" type="CarD" route="r_3" depart="160.10" />
    <vehicle id="veh298" type="truck" route="r_2" depart="163.31" />
    <vehicle id="veh721" type="CarC" route="r_6" depart="163.62" />
    <vehicle id="veh102" type="CarC" route="r_0" depart="163.97" />
    <vehicle id="veh250" type="passenger/hatchback" route="r_2" depart="165.00" />
    <vehicle id="veh1099" type="truck" route="r_9" depart="169.08" />
    <vehicle id="veh589" type="truck" route="r_5" depart="169.74" />
    <vehicle id="veh1278" type="rail" route="r_10" depart="170.61" />
    <vehicle id="veh224" type="police" route="r_1" depart="170.75" />
    <vehicle id="veh37" type="passenger/sedan" route="r_0" depart="170.75" />
    <vehicle id="veh600" type="passenger/hatchback" route="r_5" depart="172.55" />
    <vehicle id="veh516" type="CarB" route="r_4" depart="176.32" />
    <vehicle id="veh1054" type="delivery" route="r_9" depart="177.91" />
    <vehicle id="veh813" type="CarA" route="r_6" depart="178.09" />
    <vehicle id="veh870" type="rail" route="r_7" depart="181.18" />
    <vehicle id="veh1215" type="delivery" route="r_10" depart="181.34" />
    <vehicle id="veh1197" type="CarB" route="r_10" depart="182.60" />
    <vehicle id="veh1327" type="bus" route="r_11" depart="182.80" />
    <vehicle id="veh982" type="CarB" route="r_8" depart="183.55" />
    <vehicle id="veh310" type="CarB" route="r_2" depart="185.23" />
    <vehicle id="veh960" type="police" route="r_8" depart="185.88" />
    <vehicle id="veh534" type="CarD" route="r_4" depart="187.35" />
    <vehicle id="veh730" type="CarD" route="r_6" depart="189.82" />
    <vehicle id="veh440" type="CarD" route="r_3" depart="191.47" />
    <vehicle id="veh687" type="CarA" route="r_5" depart="192.72" />
    <vehicle id="veh691" type="CarD" route="r_5" depart="194.73" />
    <vehicle id="veh350" type="police" route="r_3" depart="196.14" />
    <vehicle id="veh595" type="passenger/hatchback" route="r_5" depart="198.04" />
    <vehicle id="veh879" type="emergency" route="r_7" depart="199.46" />
    <vehicle id="veh1030" type="police" route="r_8" depart="199.89" />
    <vehicle id="veh556" type="CarD" route="r_4" depart="200.03" />
    <vehicle id="veh530" type="rail" route="r_4" depart="202.47" />
    <vehicle id="veh1269" type="bus" route="r_10" depart="203.40" />
    <vehicle id="veh1310" type="delivery" route="r_11" depart="208.12" />
    <vehicle id="veh873" type="delivery" route="r_7" depart="208.15" />
    <vehicle id="veh1245" type="truck" route="r_10" depart="209.10" />
    <vehicle id="veh342" type="delivery" route="r_2" depart="211.18" />
    <vehicle id="veh124" type="passenger/hatchback" route="r_1" depart="211.72" />
    <vehicle id="veh1084" type="emergency" route="r_9" depart="211.86" />
    <vehicle id="veh793" type="police" route="r_6" depart="214.48" />
    <vehicle id="veh1180" type="CarA" route="r_10" depart="215.85" />
    <vehicle id="veh153" type="taxi" route="r_1" depart="218.02" />
    <vehicle id="veh336" type="police" route="r_2" depart="219.09" />
    <vehicle id="veh10" type="passenger/hatchback" route="r_0" depart="220.52" />
    <vehicle id="veh266" type="CarB" route="r_2" depart="222.02" />
    <vehicle id="veh889" type="passenger/sedan" route="r_7" depart="226.48" />
    <vehicle id="veh807" type="delivery" route="r_6" depart="226.51" />
    <vehicle id="veh1272" type="taxi" route="r_10" depart="229.16" />
    <vehicle id="veh65" type="passenger/hatchback" route="r_0" depart="231.22" />
    <vehicle id="veh1250" type="passenger/wagon" route="r_10" depart="231.53" />
    <vehicle id="veh270" type="truck" route="r_2" depart="233.95" />
    <vehicle id="veh200" type="passenger/van" route="r_1" depart="234.46" />
    <vehicle id="veh972" type="emergency" route="r_8" depart="236.79" />
    <vehicle id="veh1169" type="CarB" route="r_10" depart="237.55" />
    <vehicle id="veh177" type="passenger/wagon" route="r_1" depart="237.60" />
    <vehicle id="veh1079" type="truck" route="r_9" depart="238.79" />
    <vehicle id="veh1293" type="delivery" route="r_11" depart="238.87" />
    <vehicle id="veh981" type="passenger/van" route="r_8" depart="241.34" />
    <vehicle id="veh766" type="passenger/hatchback" route="r_6" depart="241.84" />
    <vehicle id="veh1348" type="emergency" route="r_11" depart="245.75" />
    <vehicle id="veh1353" type="emergency" route="r_11" depart="247.96" />
    <vehicle id="veh604" type="CarC" route="r_5" depart="250.41" />
    <vehicle id="veh1102" type="CarD" route="r_9" depart="251.04" />
    <vehicle id="veh921" type="emergency" route="r_7" depart="253.05" />
    <vehicle id="veh218" type="CarD" route="r_1" depart="254.50" />
    <vehicle id="veh773" type="rail" route="r_6" depart="255.40" />
    <vehicle id="veh1372" type="passenger/wagon" route="r_11" depart="257.69" />
    <vehicle id="veh407" type="bus" route="r_3" depart="258.01" />
    <vehicle id="veh1110" type="CarB" route="r_9" depart="259.11" />
    <vehicle id="veh1088" type="delivery" route="r_9" depart="260.47" />
    <vehicle id="veh1235" type="CarC" route="r_10" depart="263.07" />
    <vehicle id="veh1401" type="CarD" route="r_11" depart="268.36" />
    <vehicle id="veh247" type="taxi" route="r_2" depart="270.78" />
    <vehicle id="veh564" type="passenger" route="r_4" depart="271.29" />
    <vehicle id="veh358" type="rail" route="r_3" depart="271.92" />
    <vehicle id="veh377" type="rail" route="r_3" depart="272.14" />
    <vehicle id="veh1216" type="delivery" route="r_10" depart="272.26" />
    <vehicle id="veh221" type="CarD" route="r_1" depart="273.95" />
    <vehicle id="veh1319" type="passenger" route="r_11" depart="278.61" />
    <vehicle id="veh57" type="passenger/wagon" route="r_0" depart="285.65" />
    <vehicle id="veh1019" type="truck" route="r_8" depart="287.23" />
    <vehicle id="veh55" type="bus" route="r_0" depart="289.27" />
    <vehicle id="veh956" type="passenger/van" route="r_8" depart="290.65" />
    <vehicle id="veh1148" type="CarD" route="r_9" depart="291.51" />
    <vehicle id="veh1395" type="CarC" route="r_11" depart="292.62" />
    <vehicle id="veh105" type="passenger/sedan" route="r_0" depart="293.00" />
    <vehicle id="veh680" type="passenger" route="r_5" depart="293.16" />
    <vehicle id="veh1173" type="taxi" route="r_10" depart="293.33" />
    <vehicle id="veh349" type="CarA" route="r_3" depart="294.91" />
    <vehicle id="veh674" type="passenger" route="r_5" depart="295.33" />
    <vehicle id="veh1295" type="bus" route="r_11" depart="303.55" />
    <vehicle id="veh71" type="CarA" route="r_0" depart="303.78" />
    <vehicle id="veh1139" type="CarD" route="r_9" depart="303.79" />
    <vehicle id="veh427" type="passenger/sedan" route="r_3" depart="309.17" />
    <vehicle id="veh565" type="police" route="r_4" depart="309.34" />
    <vehicle id="veh1291" type="police" route="r_11" depart="310.59" />
    <vehicle id="veh261" type="passenger/hatchback" route="r_2" depart="311.22" />
    <vehicle id="veh254" type="police" route="r_2" depart="311.25" />
    <vehicle id="veh1096" type="emergency" route="r_9" depart="312.88" />
    <vehicle id="veh1238" type="CarA" route="r_10" depart="317.45" />
    <vehicle id="veh560" type="truck" route="r_4" depart="317.69" />
    <vehicle id="veh404" type="emergency" route="r_3" depart="317.95" />
    <vehicle id="veh878" type="police" route="r_7" depart="318.87" />
    <vehicle id="veh611" type="taxi" route="r_5" depart="321.80" />
    <vehicle id="veh1407" type="passenger/van" route="r_11" depart="322.57" />
    <vehicle id="veh601" type="CarA" route="r_5" depart="323.19" />
    <vehicle id="veh496" type="emergency" route="r_4" depart="323.43" />
    <vehicle id="veh933" type="truck" route="r_8" depart="323.79" />
    <vehicle id="veh9" type="CarA" route="r_0" depart="327.51" />
    <vehicle id="veh441" type="CarC" route="r_3" depart="328.52" />
    <vehicle id="veh359" type="passenger/van" route="r_3" depart="331.98" />
    <vehicle id="veh456" type="taxi" route="r_3" depart="332.60" />
    <vehicle id="veh825" type="rail" route="r_7" depart="333.16" />
    <vehicle id="veh603" type="rail" route="r_5" depart="335.15" />
    <vehicle id="veh309" type="emergency" route="r_2" depart="336.01" />
    <vehicle id="veh808" type="taxi" route="r_6" depart="336.65" />
    <vehicle id="veh887" type="passenger/sedan" route="r_7" depart="338.20" />
    <vehicle id="veh654" type="CarB" route="r_5" depart="339.08" />
    <vehicle id="veh1007" type="passenger/hatchback" route="r_8" depart="339.36" />
    <vehicle id="veh1086" type="passenger/wagon" route="r_9" depart="340.41" />
    <vehicle id="veh523" type="CarB" route="r_4" depart="340.57" />
    <vehicle id="veh569" type="police" route="r_4" depart="341.61" />
    <vehicle id="veh1240" type="passenger/hatchback" route="r_10" depart="342.26" />
    <vehicle id="veh134" type="passenger/hatchback" route="r_1" depart="342.76" />
    <vehicle id="veh954" type="truck" route="r_8" depart="342.76" />
    <vehicle id="veh731" type="rail" route="r_6" depart="343.61" />
    <vehicle id="veh489" type="truck" route="r_4" depart="346.44" />
    <vehicle id="veh463" type="CarB" route="r_4" depart="348.15" />
    <vehicle id="veh705" type="passenger/wagon" route="r_5" depart="350.53" />
    <vehicle id="veh538" type="police" route="r_4" depart="350.65" />
    <vehicle id="veh758" type="CarD" route="r_6" depart="352.89" />
    <vehicle id="veh126" type="rail" route="r_1" depart="354.06" />
    <vehicle id="veh1290" type="police" route="r_11" depart="355.43" />
    <vehicle id="veh1390" type="delivery" route="r_11" depart="356.38" />
    <vehicle id="veh656" type="passenger/wagon" route="r_5" depart="358.26" />
    <vehicle id="veh756" type="bus" route="r_6" depart="358.58" />
    <vehicle id="veh624" type="truck" route="r_5" depart="358.64" />
    <vehicle id="veh857" type="rail" route="r_7" depart="358.82" />
    <vehicle id="veh449" type="emergency" route="r_3" depart="359.42" />
    <vehicle id="veh199" type="passenger" route="r_1" depart="360.07" />
    <vehicle id="veh228" type="passenger/wagon" route="r_2" depart="362.47" />
    <vehicle id="veh412" type="rail" route="r_3" depart="365.50" />
    <vehicle id="veh743" type="truck" route="r_6" depart="368.50" />
    <vehicle id="veh286" type="police" route="r_2" depart="369.01" />
    <vehicle id="veh1252" type="passenger/sedan" route="r_10" depart="369.72" />
    <vehicle id="veh387" type="passenger" route="r_3" depart="371.65" />
    <vehicle id="veh3" type="truck" route="r_0" depart="372.69" />
    <vehicle id="veh422" type="delivery" route="r_3" depart="373.87" />
    <vehicle id="veh90" type="passenger/van" route="r_0" depart="376.83" />
    <vehicle id="veh216" type="passenger/hatchback" route="r_1" depart="377.62" />
    <vehicle id="veh78" type="delivery" route="r_0" depart="378.94" />
    <vehicle id="veh830" type="passenger/hatchback" route="r_7" depart="379.92" />
    <vehicle id="veh1373" type="emergency" route="r_11" depart="380.96" />
    <vehicle id="veh1318" type="emergency" route="r_11" depart="383.53" />
    <vehicle id="veh0" type="delivery" route="r_0" depart="384.13" />
    <vehicle id="veh1196" type="passenger/van" route="r_10" depart="387.68" />
    <vehicle id="veh646" type="taxi" route="r_5" depart="387.80" />
    <vehicle id="veh632" type="taxi" route="r_5" depart="391.96" />
    <vehicle id="veh232" type="passenger/van" route="r_2" depart="392.25" />
    <vehicle id="veh652" type="CarB" route="r_5" depart="392.90" />
    <vehicle id="veh1321" type="CarA" route="r_11" depart="393.03" />
    <vehicle id="veh806" type="bus" route="r_6" depart="399.71" />
    <vehicle id="veh174" type="passenger/sedan" route="r_1" depart="400.71" />
    <vehicle id="veh1354" type="CarA" route="r_11" depart="402.63" />
    <vehicle id="veh1052" type="passenger/van" route="r_9" depart="403.21" />
    <vehicle id="veh280" type="CarA" route="r_2" depart="405.15" />
    <vehicle id="veh1296" type="truck" route="r_11" depart="406.51" />
    <vehicle id="veh265" type="police" route="r_2" depart="406.61" />
    <vehicle id="veh256" type="CarA" route="r_2" depart="408.37" />
    <vehicle id="veh755" type="rail" route="r_6" depart="409.42" />
    <vehicle id="veh397" type="taxi" route="r_3" depart="415.08" />
    <vehicle id="veh1325" type="passenger/van" route="r_11" depart="419.07" />
    <vehicle id="veh738" type="CarD" route="r_6" depart="419.39" />
    <vehicle id="veh638" type="bus" route="r_5" depart="420.24" />
    <vehicle id="veh794" type="police" route="r_6" depart="421.98" />
    <vehicle id="veh967" type="rail" route="r_8" depart="422.20" />
    <vehicle id="veh79" type="CarB" route="r_0" depart="422.34" />
    <vehicle id="veh628" type="rail" route="r_5" depart="422.96" />
    <vehicle id="veh587" type="CarC" route="r_4" depart="424.85" />
    <vehicle id="veh582" type="taxi" route="r_4" depart="427.37" />
    <vehicle id="veh229" type="passenger" route="r_2" depart="427.43" />
    <vehicle id="veh804" type="passenger/van" route="r_6" depart="427.82" />
    <vehicle id="veh1192" type="passenger/hatchback" route="r_10" depart="428.08" />
    <vehicle id="veh544" type="emergency" route="r_4" depart="429.88" />
    <vehicle id="veh1117" type="truck" route="r_9" depart="430.21" />
    <vehicle id="veh682" type="passenger/sedan" route="r_5" depart="430.45" />
    <vehicle id="veh893" type="bus" route="r_7" depart="432.03" />
    <vehicle id="veh1200" type="CarD" route="r_10" depart="432.37" />
    <vehicle id="veh370" type="passenger/sedan" route="r_3" depart="435.26" />
    <vehicle id="veh1141" type="passenger/hatchback" route="r_9" depart="435.77" />
    <vehicle id="veh42" type="passenger/hatchback" route="r_0" depart="436.31" />
    <vehicle id="veh975" type="CarB" route="r_8" depart="436.34" />
    <vehicle id="veh637" type="passenger/wagon" route="r_5" depart="437.12" />
    <vehicle id="veh1087" type="passenger/sedan" route="r_9" depart="437.36" />
    <vehicle id="veh899" type="CarC" route="r_7" depart="440.89" />
    <vehicle id="veh41" type="police" route="r_0" depart="441.26" />
    <vehicle id="veh1257" type="CarB" route="r_10" depart="442.04" />
    <vehicle id="veh902" type="CarA" route="r_7" depart="443.27" />
    <vehicle id="veh848" type="delivery" route="r_7" depart="444.09" />