<routes>

        <!-- vehicle types (changes made : accelx2, decelx2, maxSpeedx2) -->
        <vType accel="6.0" decel="12.0" id="CarA" length="5.0" minGap="2.5" maxSpeed="100.0" sigma="0.5" color="20,20,20" /> 
        <vType accel="4.0" decel="12.0" id="CarB" length="4.5" minGap="2.5" maxSpeed="100.0" sigma="0.5" color="255,255,255" />
        <vType accel="2.0" decel="10.0" id="CarC" length="5.0" minGap="2.5" maxSpeed="80.0" sigma="0.5" color="128,0,0" />
        <vType accel="2.0" decel="10.0" id="CarD" length="6.0" minGap="2.5" maxSpeed="60.0" sigma="0.5" color="0,128,0" />
        <vType accel="4.0" decel="10.0" id="bus" guiShape="bus" length="11.0" minGap="2.5" maxSpeed="80.0" sigma="0.5" color="0,128,128" />
        <vType accel="6.0" decel="12.0" id="passenger" guiShape="passenger" minGap="2.5" maxSpeed="100.0" color="0,255,0" sigma="0.5" />
        <vType accel="6.0" decel="12.0" id="taxi" guiShape="taxi" minGap="2.5" maxSpeed="100.0" sigma="0.5" color="255,165,0" />
        <vType accel="8.0" decel="14.0" id="police" guiShape="police" minGap="2.5" maxSpeed="120.0" sigma="0.5" /> 
        <vType accel="4.0" decel="12.0" id="emergency" guiShape="emergency" minGap="2.5" maxSpeed="120.0" sigma="0.5" />
        <vType accel="2.0" decel="8.0" id="rail" guiShape="rail" minGap="2.5" maxSpeed="60.0" sigma="0.5" color="255,0,128" />
        <vType accel="4.0" decel="8.0" id="truck" guiShape="truck" minGap="2.5" maxSpeed="80.0" sigma="0.5" color="0,255,255" />
        <vType accel="6.0" decel="12.0" id="delivery" guiShape="delivery" minGap="2.5" maxSpeed="100.0" sigma="0.5" color="255,128,128" />
        <vType accel="6.0" decel="12.0" id="passenger/hatchback" guiShape="passenger/hatchback" minGap="2.5" maxSpeed="100.0" sigma="0.5" color="144,238,144" />
        <vType accel="6.0" decel="12.0" id="passenger/sedan" guiShape="passenger/sedan" minGap="2.5" maxSpeed="100.0" sigma="0.5" color="218,165,32" />
        <vType accel="6.0" decel="10.0" id="passenger/wagon" guiShape="passenger/wagon" minGap="2.5" maxSpeed="110.0" sigma="0.5" color="255,192,203" />
        <vType accel="8.0" decel="12.0" id="passenger/van" guiShape="passenger/van" minGap="2.5" maxSpeed="100.0" sigma="0.5" color="173,216,230" />           
        <vType vClass="pedestrian" id="ped0" guiShape="pedestrian" speedFactor="0.7" width="0.66" length="0.36" height="1.65" color="255,0,128" />
        <vType vClass="pedestrian" id="ped1" guiShape="pedestrian" speedFactor="0.7" width="0.59" length="0.38" height="1.73" color="255,165,0" />
        <vType vClass="pedestrian" id="ped2" guiShape="pedestrian" speedFactor="1.0" width="0.55" length="0.34" height="1.60" color="255,128,128" />
        <vType vClass="pedestrian" id="ped3" guiShape="pedestrian" speedFactor="1.0" width="0.60" length="0.40" height="1.75" color="144,238,144" />
        <vType vClass="pedestrian" id="ped4" guiShape="pedestrian" speedFactor="1.3" width="0.58" length="0.37" height="1.68" color="128,128,255" />
        <vType vClass="pedestrian" id="ped5" guiShape="pedestrian" speedFactor="1.3" width="0.57" length="0.39" height="1.70" color="100,87,240" />
        <!-- Routes -->
    <route id="r_0" edges="L16 L10"/>
    <route id="r_1" edges="L9 -E0"/>
    <route id="r_2" edges="L12 -E0"/>
    <route id="r_3" edges="E0 L15"/>
    <route id="r_4" edges="E0 L10"/>
    <route id="r_5" edges="L9 L11"/>
    <route id="r_6" edges="L9 L15"/>
    <route id="r_7" edges="E0 L11"/>
    <route id="r_8" edges="L12 L15"/>
    <route id="r_9" edges="L16 -E0"/>
    <route id="r_10" edges="L16 L11"/>
    <route id="r_11" edges="L12 L10"/>

    <!-- Pedestrian Routes -->
    <route id="ped_r_0" edges="L16 L9"/>
    <route id="ped_r_1" edges="L16 L12"/>
    <route id="ped_r_2" edges="L16 E0"/>
    <route id="ped_r_3" edges="L16 L10"/>
    <route id="ped_r_4" edges="L16 -E0"/>
    <route id="ped_r_5" edges="L16 L15"/>
    <route id="ped_r_6" edges="L16 L11"/>
    <route id="ped_r_7" edges="L9 L16"/>
    <route id="ped_r_8" edges="L9 L12"/>
    <route id="ped_r_9" edges="L9 E0"/>
    <route id="ped_r_10" edges="L9 L10"/>
    <route id="ped_r_11" edges="L9 -E0"/>
    <route id="ped_r_12" edges="L9 L15"/>
    <route id="ped_r_13" edges="L9 L11"/>
    <route id="ped_r_14" edges="L12 L16"/>
    <route id="ped_r_15" edges="L12 L9"/>
    <route id="ped_r_16" edges="L12 E0"/>
    <route id="ped_r_17" edges="L12 L10"/>
    <route id="ped_r_18" edges="L12 -E0"/>
    <route id="ped_r_19" edges="L12 L15"/>
    <route id="ped_r_20" edges="L12 L11"/>
    <route id="ped_r_21" edges="E0 L16"/>
    <route id="ped_r_22" edges="E0 L9"/>
    <route id="ped_r_23" edges="E0 L12"/>
    <route id="ped_r_24" edges="E0 L10"/>
    <route id="ped_r_25" edges="E0 -E0"/>
    <route id="ped_r_26" edges="E0 L15"/>
    <route id="ped_r_27" edges="E0 L11"/>
    <route id="ped_r_28" edges="L10 L16"/>
    <route id="ped_r_29" edges="L10 L9"/>
    <route id="ped_r_30" edges="L10 L12"/>
    <route id="ped_r_31" edges="L10 E0"/>
    <route id="ped_r_32" edges="L10 -E0"/>
    <route id="ped_r_33" edges="L10 L15"/>
    <route id="ped_r_34" edges="L10 L11"/>
    <route id="ped_r_35" edges="-E0 L16"/>
    <route id="ped_r_36" edges="-E0 L9"/>
    <route id="ped_r_37" edges="-E0 L12"/>
    <route id="ped_r_38" edges="-E0 E0"/>
    <route id="ped_r_39" edges="-E0 L10"/>
    <route id="ped_r_40" edges="-E0 L15"/>
    <route id="ped_r_41" edges="-E0 L11"/>
    <route id="ped_r_42" edges="L15 L16"/>
    <route id="ped_r_43" edges="L15 L9"/>
    <route id="ped_r_44" edges="L15 L12"/>
    <route id="ped_r_45" edges="L15 E0"/>
    <route id="ped_r_46" edges="L15 L10"/>
    <route id="ped_r_47" edges="L15 -E0"/>
    <route id="ped_r_48" edges="L15 L11"/>
    <route id="ped_r_49" edges="L11 L16"/>
    <route id="ped_r_50" edges="L11 L9"/>
    <route id="ped_r_51" edges="L11 L12"/>
    <route id="ped_r_52" edges="L11 E0"/>
    <route id="ped_r_53" edges="L11 L10"/>
    <route id="ped_r_54" edges="L11 -E0"/>
    <route id="ped_r_55" edges="L11 L15"/>

    <!-- vehicles -->
    <vehicle id="veh812" type="CarC" route="r_6" depart="3.54" />
    <vehicle id="veh533" type="CarB" route="r_4" depart="5.14" />
    <vehicle id="veh128" type="delivery" route="r_1" depart="5.42" />
    <vehicle id="veh668" type="passenger/sedan" route="r_5" depart="6.10" />
    <vehicle id="veh1279" type="passenger/van" route="r_10" depart="7.13" />
    <vehicle id="veh776" type="passenger/sedan" route="r_6" depart="8.14" />
    <vehicle id="veh1157" type="bus" route="r_9" depart="8.68" />
    <vehicle id="veh557" type="CarD" route="r_4" depart="11.18" />
    <vehicle id="veh572" type="passenger/hatchback" route="r_4" depart="12.19" />
    <vehicle id="veh298" type="CarD" route="r_2" depart="13.81" />
    <vehicle id="veh1232" type="bus" route="r_10" depart="14.27" />
    <vehicle id="veh713" type="delivery" route="r_5" depart="14.65" />
    <vehicle id="veh57" type="CarD" route="r_0" depart="14.78" />
    <vehicle id="veh1343" type="rail" route="r_11" depart="15.06" />
    <vehicle id="veh899" type="police" route="r_7" depart="15.62" />
    <vehicle id="veh681" type="bus" route="r_5" depart="16.69" />
    <vehicle id="veh9" type="truck" route="r_0" depart="17.84" />
    <vehicle id="veh1030" type="police" route="r_8" depart="21.04" />
    <vehicle id="veh1095" type="passenger/van" route="r_9" depart="21.66" />
    <vehicle id="veh1156" type="taxi" route="r_9" depart="22.15" />
    <vehicle id="veh1267" type="truck" route="r_10" depart="24.78" />
    <vehicle id="veh614" type="CarC" route="r_5" depart="24.80" />
    <vehicle id="veh775" type="passenger/hatchback" route="r_6" depart="26.82" />
    <vehicle id="veh1241" type="truck" route="r_10" depart="28.07" />
    <vehicle id="veh40" type="passenger/hatchback" route="r_0" depart="30.11" />
    <vehicle id="veh11" type="CarB" route="r_0" depart="33.28" />
    <vehicle id="veh152" type="delivery" route="r_1" depart="35.60" />
    <vehicle id="veh789" type="passenger/sedan" route="r_6" depart="36.31" />
    <vehicle id="veh1056" type="truck" route="r_8" depart="36.94" />
    <vehicle id="veh909" type="CarC" route="r_7" depart="39.88" />
    <vehicle id="veh29" type="truck" route="r_0" depart="40.40" />
    <vehicle id="veh242" type="police" route="r_2" depart="41.50" />
    <vehicle id="veh924" type="bus" route="r_7" depart="42.71" />
    <vehicle id="veh502" type="truck" route="r_4" depart="45.21" />
    <vehicle id="veh1138" type="bus" route="r_9" depart="48.47" />
    <vehicle id="veh245" type="delivery" route="r_2" depart="50.71" />
    <vehicle id="veh1108" type="CarC" route="r_9" depart="53.67" />
    <vehicle id="veh1194" type="passenger/hatchback" route="r_9" depart="58.50" />
    <vehicle id="veh1083" type="passenger/sedan" route="r_9" depart="58.64" />
    <vehicle id="veh772" type="truck" route="r_6" depart="59.14" />
    <vehicle id="veh1195" type="police" route="r_9" depart="60.16" />
    <vehicle id="veh1228" type="delivery" route="r_10" depart="62.36" />
    <vehicle id="veh959" type="rail" route="r_7" depart="68.06" />
    <vehicle id="veh695" type="truck" route="r_5" depart="68.20" />
    <vehicle id="veh359" type="passenger" route="r_3" depart="68.40" />
    <vehicle id="veh1185" type="taxi" route="r_9" depart="69.24" />
    <vehicle id="veh706" type="passenger/wagon" route="r_5" depart="71.57" />
    <vehicle id="veh182" type="bus" route="r_1" depart="72.23" />
    <vehicle id="veh1088" type="truck" route="r_9" depart="72.62" />
    <vehicle id="veh1313" type="passenger" route="r_10" depart="72.89" />
    <vehicle id="veh215" type="CarD" route="r_1" depart="73.41" />
    <vehicle id="veh1231" type="CarD" route="r_10" depart="74.61" />
    <vehicle id="veh1270" type="bus" route="r_10" depart="75.45" />
    <vehicle id="veh485" type="rail" route="r_4" depart="75.81" />
    <vehicle id="veh1310" type="passenger" route="r_10" depart="76.85" />
    <vehicle id="veh891" type="CarD" route="r_7" depart="79.03" />
    <vehicle id="veh424" type="truck" route="r_3" depart="79.69" />
    <vehicle id="veh500" type="CarC" route="r_4" depart="80.35" />
    <vehicle id="veh534" type="CarA" route="r_4" depart="81.88" />
    <vehicle id="veh598" type="CarD" route="r_4" depart="84.70" />
    <vehicle id="veh376" type="emergency" route="r_3" depart="87.80" />
    <vehicle id="veh554" type="delivery" route="r_4" depart="88.41" />
    <vehicle id="veh1338" type="bus" route="r_11" depart="89.13" />
    <vehicle id="veh785" type="rail" route="r_6" depart="90.27" />
    <vehicle id="veh505" type="taxi" route="r_4" depart="90.30" />
    <vehicle id="veh455" type="delivery" route="r_3" depart="90.52" />
    <vehicle id="veh1225" type="passenger/wagon" route="r_10" depart="90.93" />
    <vehicle id="veh1076" type="CarC" route="r_8" depart="91.36" />
    <vehicle id="veh497" type="CarA" route="r_4" depart="95.89" />
    <vehicle id="veh1024" type="emergency" route="r_8" depart="96.77" />
    <vehicle id="veh20" type="passenger/hatchback" route="r_0" depart="97.49" />
    <vehicle id="veh795" type="CarB" route="r_6" depart="98.07" />
    <vehicle id="veh807" type="passenger" route="r_6" depart="104.38" />
    <vehicle id="veh381" type="police" route="r_3" depart="106.60" />
    <vehicle id="veh448" type="delivery" route="r_3" depart="106.64" />
    <vehicle id="veh287" type="passenger" route="r_2" depart="106.92" />
    <vehicle id="veh701" type="rail" route="r_5" depart="107.41" />
    <vehicle id="veh1401" type="taxi" route="r_11" depart="109.28" />
    <vehicle id="veh761" type="police" route="r_6" depart="110.29" />
    <vehicle id="veh311" type="CarD" route="r_2" depart="112.61" />
    <vehicle id="veh360" type="police" route="r_3" depart="112.62" />
    <vehicle id="veh1196" type="police" route="r_9" depart="112.92" />
    <vehicle id="veh835" type="CarB" route="r_6" depart="116.10" />
    <vehicle id="veh781" type="passenger/hatchback" route="r_6" depart="118.30" />
    <vehicle id="veh1110" type="passenger/sedan" route="r_9" depart="120.23" />
    <vehicle id="veh1362" type="passenger/van" route="r_11" depart="120.82" />
    <vehicle id="veh1213" type="rail" route="r_10" depart="123.40" />
    <vehicle id="veh1402" type="CarD" route="r_11" depart="123.76" />
    <vehicle id="veh119" type="passenger" route="r_0" depart="124.83" />
    <vehicle id="veh1367" type="taxi" route="r_11" depart="125.08" />
    <vehicle id="veh234" type="passenger/sedan" route="r_1" depart="126.05" />
    <vehicle id="veh541" type="CarC" route="r_4" depart="126.58" />
    <vehicle id="veh1136" type="delivery" route="r_9" depart="126.72" />
    <vehicle id="veh366" type="CarC" route="r_3" depart="131.18" />
    <vehicle id="veh987" type="taxi" route="r_8" depart="131.18" />
    <vehicle id="veh780" type="CarC" route="r_6" depart="132.10" />
    <vehicle id="veh872" type="emergency" route="r_7" depart="135.76" />
    <vehicle id="veh1032" type="passenger" route="r_8" depart="135.96" />
    <vehicle id="veh920" type="passenger/sedan" route="r_7" depart="136.60" />
    <vehicle id="veh1090" type="delivery" route="r_9" depart="137.39" />
    <vehicle id="veh769" type="CarD" route="r_6" depart="138.47" />
    <vehicle id="veh394" type="rail" route="r_3" depart="140.56" />
    <vehicle id="veh64" type="CarD" route="r_0" depart="142.03" />
    <vehicle id="veh1415" type="bus" route="r_11" depart="142.22" />
    <vehicle id="veh1414" type="passenger/wagon" route="r_11" depart="142.53" />
    <vehicle id="veh1393" type="CarC" route="r_11" depart="143.24" />
    <vehicle id="veh91" type="CarB" route="r_0" depart="143.54" />
    <vehicle id="veh421" type="CarB" route="r_3" depart="147.47" />
    <vehicle id="veh155" type="passenger/wagon" route="r_1" depart="151.15" />
    <vehicle id="veh1029" type="taxi" route="r_8" depart="153.61" />
    <vehicle id="veh1374" type="passenger" route="r_11" depart="154.59" />
    <vehicle id="veh578" type="passenger" route="r_4" depart="154.95" />
    <vehicle id="veh317" type="passenger" route="r_2" depart="155.20" />
    <vehicle id="veh623" type="delivery" route="r_5" depart="155.22" />
    <vehicle id="veh847" type="truck" route="r_7" depart="155.97" />
    <vehicle id="veh325" type="passenger/wagon" route="r_2" depart="157.10" />
    <vehicle id="veh686" type="truck" route="r_5" depart="158.25" />
    <vehicle id="veh937" type="truck" route="r_7" depart="159.20" />
    <vehicle id="veh705" type="emergency" route="r_5" depart="159.84" />
    <vehicle id="veh262" type="bus" route="r_2" depart="159.85" />
    <vehicle id="veh214" type="passenger/hatchback" route="r_1" depart="159.96" />
    <vehicle id="veh679" type="rail" route="r_5" depart="164.84" />
    <vehicle id="veh445" type="rail" route="r_3" depart="166.79" />
    <vehicle id="veh816" type="CarB" route="r_6" depart="166.83" />
    <vehicle id="veh691" type="CarC" route="r_5" depart="168.55" />
    <vehicle id="veh633" type="passenger/wagon" route="r_5" depart="170.29" />
    <vehicle id="veh952" type="emergency" route="r_7" depart="171.00" />
    <vehicle id="veh889" type="passenger/sedan" route="r_7" depart="175.07" />
    <vehicle id="veh634" type="passenger/van" route="r_5" depart="175.62" />
    <vehicle id="veh1357" type="rail" route="r_11" depart="175.70" />
    <vehicle id="veh509" type="passenger" route="r_4" depart="176.24" />
    <vehicle id="veh1249" type="police" route="r_10" depart="177.92" />
    <vehicle id="veh989" type="passenger/hatchback" route="r_8" depart="178.30" />
    <vehicle id="veh1405" type="passenger/sedan" route="r_11" depart="178.87" />
    <vehicle id="veh932" type="taxi" route="r_7" depart="179.95" />
    <vehicle id="veh1060" type="bus" route="r_8" depart="181.44" />
    <vehicle id="veh1182" type="truck" route="r_9" depart="183.12" />
    <vehicle id="veh161" type="emergency" route="r_1" depart="183.13" />
    <vehicle id="veh1246" type="passenger/van" route="r_10" depart="183.57" />
    <vehicle id="veh1383" type="rail" route="r_11" depart="183.61" />
    <vehicle id="veh566" type="rail" route="r_4" depart="185.71" />
    <vehicle id="veh425" type="CarC" route="r_3" depart="186.28" />
    <vehicle id="veh563" type="police" route="r_4" depart="190.39" />
    <vehicle id="veh1141" type="truck" route="r_9" depart="190.95" />
    <vehicle id="veh201" type="passenger/van" route="r_1" depart="191.78" />
    <vehicle id="veh223" type="passenger" route="r_1" depart="192.84" />
    <vehicle id="veh308" type="passenger/wagon" route="r_2" depart="194.49" />
    <vehicle id="veh519" type="CarD" route="r_4" depart="197.59" />
    <vehicle id="veh1342" type="passenger/hatchback" route="r_11" depart="202.67" />
    <vehicle id="veh666" type="CarD" route="r_5" depart="202.90" />
    <vehicle id="veh514" type="passenger/wagon" route="r_4" depart="206.49" />
    <vehicle id="veh1119" type="rail" route="r_9" depart="206.72" />
    <vehicle id="veh168" type="passenger/sedan" route="r_1" depart="207.73" />
    <vehicle id="veh39" type="passenger" route="r_0" depart="208.62" />
    <vehicle id="veh1214" type="passenger/sedan" route="r_10" depart="210.35" />
    <vehicle id="veh524" type="passenger/hatchback" route="r_4" depart="213.31" />
    <vehicle id="veh727" type="rail" route="r_6" depart="213.74" />
    <vehicle id="veh447" type="delivery" route="r_3" depart="216.61" />
    <vehicle id="veh960" type="delivery" route="r_7" depart="217.19" />
    <vehicle id="veh338" type="truck" route="r_2" depart="218.40" />
    <vehicle id="veh690" type="CarC" route="r_5" depart="221.17" />
    <vehicle id="veh636" type="passenger/sedan" route="r_5" depart="222.68" />
    <vehicle id="veh588" type="delivery" route="r_4" depart="223.15" />
    <vehicle id="veh577" type="CarC" route="r_4" depart="224.98" />
    <vehicle id="veh506" type="truck" route="r_4" depart="225.04" />
    <vehicle id="veh1253" type="passenger/hatchback" route="r_10" depart="227.39" />
    <vehicle id="veh137" type="passenger/hatchback" route="r_1" depart="228.24" />
    <vehicle id="veh953" type="CarD" route="r_7" depart="228.47" />
    <vehicle id="veh93" type="CarC" route="r_0" depart="228.84" />
    <vehicle id="veh1142" type="rail" route="r_9" depart="229.28" />
    <vehicle id="veh1063" type="bus" route="r_8" depart="232.77" />
    <vehicle id="veh908" type="CarC" route="r_7" depart="233.34" />
    <vehicle id="veh1300" type="passenger/hatchback" route="r_10" depart="233.56" />
    <vehicle id="veh504" type="CarA" route="r_4" depart="234.43" />
    <vehicle id="veh936" type="CarB" route="r_7" depart="234.43" />
    <vehicle id="veh645" type="passenger/hatchback" route="r_5" depart="235.54" />
    <vehicle id="veh784" type="police" route="r_6" depart="235.58" />
    <vehicle id="veh1043" type="CarB" route="r_8" depart="236.91" />
    <vehicle id="veh160" type="passenger/sedan" route="r_1" depart="236.99" />
    <vehicle id="veh1048" type="passenger/hatchback" route="r_8" depart="237.83" />
    <vehicle id="veh892" type="delivery" route="r_7" depart="240.23" />
    <vehicle id="veh411" type="emergency" route="r_3" depart="242.51" />
    <vehicle id="veh92" type="passenger/wagon" route="r_0" depart="248.03" />
    <vehicle id="veh450" type="truck" route="r_3" depart="248.23" />
    <vehicle id="veh258" type="passenger" route="r_2" depart="248.34" />
    <vehicle id="veh261" type="delivery" route="r_2" depart="248.65" />
    <vehicle id="veh756" type="CarD" route="r_6" depart="249.34" />
    <vehicle id="veh1299" type="passenger/sedan" route="r_10" depart="250.07" />
    <vehicle id="veh507" type="police" route="r_4" depart="250.51" />
    <vehicle id="veh1408" type="police" route="r_11" depart="251.69" />
    <vehicle id="veh1116" type="CarB" route="r_9" depart="252.45" />
    <vehicle id="veh1297" type="taxi" route="r_10" depart="253.75" />
    <vehicle id="veh1152" type="police" route="r_9" depart="257.70" />
    <vehicle id="veh146" type="truck" route="r_1" depart="257.71" />
    <vehicle id="veh224" type="CarA" route="r_1" depart="257.73" />
    <vehicle id="veh403" type="passenger/sedan" route="r_3" depart="260.76" />
    <vehicle id="veh838" type="CarB" route="r_6" depart="264.89" />
    <vehicle id="veh1133" type="passenger" route="r_9" depart="266.83" />
    <vehicle id="veh1053" type="passenger/sedan" route="r_8" depart="267.63" />
    <vehicle id="veh416" type="passenger/hatchback" route="r_3" depart="267.96" />
    <vehicle id="veh593" type="passenger/sedan" route="r_4" depart="271.90" />
    <vehicle id="veh254" type="CarA" route="r_2" depart="272.00" />
    <vehicle id="veh233" type="police" route="r_1" depart="274.73" />
    <vehicle id="veh886" type="passenger/van" route="r_7" depart="275.09" />
    <vehicle id="veh1162" type="bus" route="r_9" depart="275.91" />
    <vehicle id="veh63" type="CarB" route="r_0" depart="277.72" />
    <vehicle id="veh1002" type="passenger/hatchback" route="r_8" depart="280.65" />
    <vehicle id="veh454" type="bus" route="r_3" depart="280.80" />
    <vehicle id="veh251" type="bus" route="r_2" depart="282.24" />
    <vehicle id="veh646" type="police" route="r_5" depart="282.30" />
    <vehicle id="veh845" type="bus" route="r_7" depart="283.03" />
    <vehicle id="veh913" type="taxi" route="r_7" depart="283.31" />
    <vehicle id="veh10" type="passenger/hatchback" route="r_0" depart="283.91" />
    <vehicle id="veh787" type="taxi" route="r_6" depart="284.03" />
    <vehicle id="veh431" type="CarD" route="r_3" depart="286.31" />
    <vehicle id="veh1200" type="CarB" route="r_9" depart="286.53" />
    <vehicle id="veh177" type="CarA" route="r_1" depart="287.26" />
    <vehicle id="veh511" type="passenger/van" route="r_4" depart="287.37" />
    <vehicle id="veh728" type="CarC" route="r_6" depart="288.30" />
    <vehicle id="veh393" type="CarB" route="r_3" depart="288.31" />
    <vehicle id="veh1198" type="passenger/hatchback" route="r_9" depart="289.89" />
    <vehicle id="veh1192" type="taxi" route="r_9" depart="290.73" />
    <vehicle id="veh1271" type="passenger/hatchback" route="r_10" depart="292.94" />
    <vehicle id="veh826" type="passenger/van" route="r_6" depart="297.10" />
    <vehicle id="veh876" type="bus" route="r_7" depart="298.75" />
    <vehicle id="veh866" type="bus" route="r_7" depart="299.15" />
    <vehicle id="veh718" type="bus" route="r_5" depart="300.81" />
    <vehicle id="veh442" type="CarC" route="r_3" depart="302.01" />
    <vehicle id="veh639" type="passenger" route="r_5" depart="302.13" />
    <vehicle id="veh282" type="passenger/van" route="r_2" depart="302.56" />
    <vehicle id="veh961" type="CarB" route="r_7" depart="303.30" />
    <vehicle id="veh1344" type="CarB" route="r_11" depart="304.93" />
    <vehicle id="veh1015" type="police" route="r_8" depart="305.36" />
    <vehicle id="veh1433" type="emergency" route="r_11" depart="306.62" />
    <vehicle id="veh522" type="delivery" route="r_4" depart="307.19" />
    <vehicle id="veh1350" type="CarB" route="r_11" depart="307.78" />
    <vehicle id="veh1131" type="CarA" route="r_9" depart="310.89" />
    <vehicle id="veh1428" type="passenger/sedan" route="r_11" depart="313.68" />
    <vehicle id="veh543" type="passenger/sedan" route="r_4" depart="313.76" />
    <vehicle id="veh386" type="delivery" route="r_3" depart="314.58" />
    <vehicle id="veh567" type="passenger/hatchback" route="r_4" depart="314.68" />
    <vehicle id="veh568" type="CarA" route="r_4" depart="314.95" />
    <vehicle id="veh89" type="taxi" route="r_0" depart="315.12" />
    <vehicle id="veh564" type="CarC" route="r_4" depart="315.69" />
    <vehicle id="veh747" type="police" route="r_6" depart="315.75" />
    <vehicle id="veh1000" type="emergency" route="r_8" depart="316.68" />
    <vehicle id="veh1210" type="taxi" route="r_10" depart="321.43" />
    <vehicle id="veh195" type="CarD" route="r_1" depart="321.92" />
    <vehicle id="veh1084" type="police" route="r_9" depart="322.72" />
    <vehicle id="veh762" type="truck" route="r_6" depart="323.80" />
    <vehicle id="veh928" type="CarC" route="r_7" depart="325.95" />
    <vehicle id="veh878" type="police" route="r_7" depart="327.32" />
    <vehicle id="veh143" type="truck" route="r_1" depart="327.60" />
    <vehicle id="veh1171" type="passenger/wagon" route="r_9" depart="328.02" />
    <vehicle id="veh158" type="taxi" route="r_1" depart="328.50" />
    <vehicle id="veh865" type="police" route="r_7" depart="328.91" />
    <vehicle id="veh1329" type="bus" route="r_11" depart="329.63" />
    <vehicle id="veh434" type="CarA" route="r_3" depart="331.22" />
    <vehicle id="veh108" type="CarB" route="r_0" depart="331.95" />
    <vehicle id="veh983" type="police" route="r_8" depart="332.92" />
    <vehicle id="veh1012" type="emergency" route="r_8" depart="334.35" />
    <vehicle id="veh861" type="passenger/wagon" route="r_7" depart="341.36" />
    <vehicle id="veh247" type="CarB" route="r_2" depart="344.70" />
    <vehicle id="veh643" type="passenger/sedan" route="r_5" depart="345.78" />
    <vehicle id="veh1275" type="CarC" route="r_10" depart="351.45" />
    <vehicle id="veh1385" type="passenger/sedan" route="r_11" depart="352.47" />
    <vehicle id="veh949" type="CarD" route="r_7" depart="352.99" />
    <vehicle id="veh612" type="truck" route="r_5" depart="353.07" />
    <vehicle id="veh1178" type="delivery" route="r_9" depart="353.25" />
    <vehicle id="veh389" type="passenger/wagon" route="r_3" depart="355.42" />
    <vehicle id="veh548" type="police" route="r_4" depart="355.63" />
    <vehicle id="veh324" type="delivery" route="r_2" depart="359.48" />
    <vehicle id="veh1430" type="truck" route="r_11" depart="359.78" />
    <vehicle id="veh967" type="CarD" route="r_8" depart="360.07" />
    <vehicle id="veh962" type="delivery" route="r_7" depart="360.19" />
    <vehicle id="veh295" type="truck" route="r_2" depart="362.86" />
    <vehicle id="veh595" type="truck" route="r_4" depart="363.51" />
    <vehicle id="veh221" type="CarD" route="r_1" depart="364.33" />
    <vehicle id="veh1294" type="bus" route="r_10" depart="367.26" />
    <vehicle id="veh357" type="bus" route="r_3" depart="369.42" />
    <vehicle id="veh1065" type="CarC" route="r_8" depart="370.85" />
    <vehicle id="veh571" type="passenger/hatchback" route="r_4" depart="370.88" />
    <vehicle id="veh521" type="police" route="r_4" depart="376.48" />
    <vehicle id="veh1286" type="passenger/wagon" route="r_10" depart="377.73" />
    <vehicle id="veh113" type="CarA" route="r_0" depart="379.73" />
    <vehicle id="veh482" type="CarA" route="r_4" depart="380.83" />
    <vehicle id="veh730" type="passenger/hatchback" route="r_6" depart="387.89" />
    <vehicle id="veh624" type="police" route="r_5" depart="389.56" />
    <vehicle id="veh1409" type="emergency" route="r_11" depart="393.18" />
    <vehicle id="veh757" type="bus" route="r_6" depart="398.34" />
    <vehicle id="veh1137" type="taxi" route="r_9" depart="399.53" />
    <vehicle id="veh1006" type="passenger/hatchback" route="r_8" depart="401.71" />
    <vehicle id="veh103" type="passenger/hatchback" route="r_0" depart="402.76" />
    <vehicle id="veh1366" type="bus" route="r_11" depart="410.82" />
    <vehicle id="veh90" type="bus" route="r_0" depart="410.98" />
    <vehicle id="veh463" type="passenger" route="r_3" depart="411.45" />
    <vehicle id="veh34" type="CarB" route="r_0" depart="412.29" />
    <vehicle id="veh1421" type="CarD" route="r_11" depart="412.58" />
    <vehicle id="veh1320" type="delivery" route="r_10" depart="414.46" />
    <vehicle id="veh1068" type="delivery" route="r_8" depart="415.03" />
    <vehicle id="veh167" type="emergency" route="r_1" depart="416.55" />
    <vehicle id="veh1325" type="passenger/hatchback" route="r_11" depart="417.82" />
    <vehicle id="veh1392" type="passenger/van" route="r_11" depart="421.90" />
    <vehicle id="veh25" type="passenger/sedan" route="r_0" depart="422.34" />
    <vehicle id="veh851" type="passenger/sedan" route="r_7" depart="422.51" />
    <vehicle id="veh1146" type="emergency" route="r_9" depart="423.31" />
    <vehicle id="veh1161" type="police" route="r_9" depart="423.95" />
    <vehicle id="veh235" type="passenger/wagon" route="r_1" depart="424.20" />
    <vehicle id="veh1417" type="bus" route="r_11" depart="425.20" />
    <vehicle id="veh1122" type="police" route="r_9" depart="426.65" />
    <vehicle id="veh1293" type="truck" route="r_10" depart="426.95" />
    <vehicle id="veh948" type="passenger/wagon" route="r_7" depart="428.45" />
    <vehicle id="veh512" type="passenger" route="r_4" depart="428.80" />
    <vehicle id="veh1019" type="CarA" route="r_8" depart="429.65" />
    <vehicle id="veh832" type="police" route="r_6" depart="429.66" />
    <vehicle id="veh347" type="CarA" route="r_2" depart="430.32" />
    <vehicle id="veh38" type="passenger/sedan" route="r_0" depart="430.45" />
    <vehicle id="veh1340" type="CarA" route="r_11" depart="432.23" />
    <vehicle id="veh399" type="passenger" route="r_3" depart="432.32" />
    <vehicle id="veh884" type="delivery" route="r_7" depart="436.03" />
    <vehicle id="veh1041" type="rail" route="r_8" depart="439.91" />
    <vehicle id="veh145" type="bus" route="r_1" depart="440.78" />
    <vehicle id="veh439" type="passenger" route="r_3" depart="445.06" />
    <vehicle id="veh926" type="passenger/hatchback" route="r_7" depart="447.80" />
    <vehicle id="veh1096" type="CarD" route="r_9" depart="448.17" />
    <vehicle id="veh765" type="passenger/hatchback" route="r_6" depart="449.10" />