<routes>

        <!-- vehicle types (changes made : accelx2, decelx2, maxSpeedx2) -->
        <vType accel="6.0" decel="12.0" id="CarA" length="5.0" minGap="2.5" maxSpeed="100.0" sigma="0.5" color="20,20,20" /> 
        <vType accel="4.0" decel="12.0" id="CarB" length="4.5" minGap="2.5" maxSpeed="100.0" sigma="0.5" color="255,255,255" />
        <vType accel="2.0" decel="10.0" id="CarC" length="5.0" minGap="2.5" maxSpeed="80.0" sigma="0.5" color="128,0,0" />
        <vType accel="2.0" decel="10.0" id="CarD" length="6.0" minGap="2.5" maxSpeed="60.0" sigma="0.5" color="0,128,0" />
        <vType accel="4.0" decel="10.0" id="bus" guiShape="bus" length="11.0" minGap="2.5" maxSpeed="80.0" sigma="0.5" color="0,128,128" />
        <vType accel="6.0" decel="12.0" id="passenger" guiShape="passenger" minGap="2.5" maxSpeed="100.0" color="0,255,0" sigma="0.5" />
        <vType accel="6.0" decel="12.0" id="taxi" guiShape="taxi" minGap="2.5" maxSpeed="100.0" sigma="0.5" color="255,165,0" />
        <vType accel="8.0" decel="14.0" id="police" guiShape="police" minGap="2.5" maxSpeed="120.0" sigma="0.5" /> 
        <vType accel="4.0" decel="12.0" id="emergency" guiShape="emergency" minGap="2.5" maxSpeed="120.0" sigma="0.5" />
        <vType accel="2.0" decel="8.0" id="rail" guiShape="rail" minGap="2.5" maxSpeed="60.0" sigma="0.5" color="255,0,128" />
        <vType accel="4.0" decel="8.0" id="truck" guiShape="truck" minGap="2.5" maxSpeed="80.0" sigma="0.5" color="0,255,255" />
        <vType accel="6.0" decel="12.0" id="delivery" guiShape="delivery" minGap="2.5" maxSpeed="100.0" sigma="0.5" color="255,128,128" />
        <vType accel="6.0" decel="12.0" id="passenger/hatchback" guiShape="passenger/hatchback" minGap="2.5" maxSpeed="100.0" sigma="0.5" color="144,238,144" />
        <vType accel="6.0" decel="12.0" id="passenger/sedan" guiShape="passenger/sedan" minGap="2.5" maxSpeed="100.0" sigma="0.5" color="218,165,32" />
        <vType accel="6.0" decel="10.0" id="passenger/wagon" guiShape="passenger/wagon" minGap="2.5" maxSpeed="110.0" sigma="0.5" color="255,192,203" />
        <vType accel="8.0" decel="12.0" id="passenger/van" guiShape="passenger/van" minGap="2.5" maxSpeed="100.0" sigma="0.5" color="173,216,230" />           
        <vType vClass="pedestrian" id="ped0" guiShape="pedestrian" speedFactor="0.7" width="0.66" length="0.36" height="1.65" color="255,0,128" />
        <vType vClass="pedestrian" id="ped1" guiShape="pedestrian" speedFactor="0.7" width="0.59" length="0.38" height="1.73" color="255,165,0" />
        <vType vClass="pedestrian" id="ped2" guiShape="pedestrian" speedFactor="1.0" width="0.55" length="0.34" height="1.60" color="255,128,128" />
        <vType vClass="pedestrian" id="ped3" guiShape="pedestrian" speedFactor="1.0" width="0.60" length="0.40" height="1.75" color="144,238,144" />
        <vType vClass="pedestrian" id="ped4" guiShape="pedestrian" speedFactor="1.3" width="0.58" length="0.37" height="1.68" color="128,128,255" />
        <vType vClass="pedestrian" id="ped5" guiShape="pedestrian" speedFactor="1.3" width="0.57" length="0.39" height="1.70" color="100,87,240" />
        <!-- Routes -->
    <route id="r_0" edges="L16 L10"/>
    <route id="r_1" edges="L9 -E0"/>
    <route id="r_2" edges="L12 -E0"/>
    <route id="r_3" edges="E0 L15"/>
    <route id="r_4" edges="E0 L10"/>
    <route id="r_5" edges="L9 L11"/>
    <route id="r_6" edges="L9 L15"/>
    <route id="r_7" edges="E0 L11"/>
    <route id="r_8" edges="L12 L15"/>
    <route id="r_9" edges="L16 -E0"/>
    <route id="r_10" edges="L16 L11"/>
    <route id="r_11" edges="L12 L10"/>

    <!-- Pedestrian Routes -->
    <route id="ped_r_0" edges="L16 L9"/>
    <route id="ped_r_1" edges="L16 L12"/>
    <route id="ped_r_2" edges="L16 E0"/>
    <route id="ped_r_3" edges="L16 L10"/>
    <route id="ped_r_4" edges="L16 -E0"/>
    <route id="ped_r_5" edges="L16 L15"/>
    <route id="ped_r_6" edges="L16 L11"/>
    <route id="ped_r_7" edges="L9 L16"/>
    <route id="ped_r_8" edges="L9 L12"/>
    <route id="ped_r_9" edges="L9 E0"/>
    <route id="ped_r_10" edges="L9 L10"/>
    <route id="ped_r_11" edges="L9 -E0"/>
    <route id="ped_r_12" edges="L9 L15"/>
    <route id="ped_r_13" edges="L9 L11"/>
    <route id="ped_r_14" edges="L12 L16"/>
    <route id="ped_r_15" edges="L12 L9"/>
    <route id="ped_r_16" edges="L12 E0"/>
    <route id="ped_r_17" edges="L12 L10"/>
    <route id="ped_r_18" edges="L12 -E0"/>
    <route id="ped_r_19" edges="L12 L15"/>
    <route id="ped_r_20" edges="L12 L11"/>
    <route id="ped_r_21" edges="E0 L16"/>
    <route id="ped_r_22" edges="E0 L9"/>
    <route id="ped_r_23" edges="E0 L12"/>
    <route id="ped_r_24" edges="E0 L10"/>
    <route id="ped_r_25" edges="E0 -E0"/>
    <route id="ped_r_26" edges="E0 L15"/>
    <route id="ped_r_27" edges="E0 L11"/>
    <route id="ped_r_28" edges="L10 L16"/>
    <route id="ped_r_29" edges="L10 L9"/>
    <route id="ped_r_30" edges="L10 L12"/>
    <route id="ped_r_31" edges="L10 E0"/>
    <route id="ped_r_32" edges="L10 -E0"/>
    <route id="ped_r_33" edges="L10 L15"/>
    <route id="ped_r_34" edges="L10 L11"/>
    <route id="ped_r_35" edges="-E0 L16"/>
    <route id="ped_r_36" edges="-E0 L9"/>
    <route id="ped_r_37" edges="-E0 L12"/>
    <route id="ped_r_38" edges="-E0 E0"/>
    <route id="ped_r_39" edges="-E0 L10"/>
    <route id="ped_r_40" edges="-E0 L15"/>
    <route id="ped_r_41" edges="-E0 L11"/>
    <route id="ped_r_42" edges="L15 L16"/>
    <route id="ped_r_43" edges="L15 L9"/>
    <route id="ped_r_44" edges="L15 L12"/>
    <route id="ped_r_45" edges="L15 E0"/>
    <route id="ped_r_46" edges="L15 L10"/>
    <route id="ped_r_47" edges="L15 -E0"/>
    <route id="ped_r_48" edges="L15 L11"/>
    <route id="ped_r_49" edges="L11 L16"/>
    <route id="ped_r_50" edges="L11 L9"/>
    <route id="ped_r_51" edges="L11 L12"/>
    <route id="ped_r_52" edges="L11 E0"/>
    <route id="ped_r_53" edges="L11 L10"/>
    <route id="ped_r_54" edges="L11 -E0"/>
    <route id="ped_r_55" edges="L11 L15"/>

    <!-- vehicles -->
    <vehicle id="veh129" type="passenger/van" route="r_1" depart="0.12" />
    <vehicle id="veh12" type="passenger" route="r_0" depart="2.32" />
    <vehicle id="veh608" type="CarA" route="r_4" depart="5.17" />
    <vehicle id="veh137" type="bus" route="r_1" depart="5.31" />
    <vehicle id="veh745" type="passenger/van" route="r_5" depart="6.13" />
    <vehicle id="veh874" type="bus" route="r_7" depart="6.64" />
    <vehicle id="veh673" type="passenger/hatchback" route="r_5" depart="6.94" />
    <vehicle id="veh1178" type="emergency" route="r_9" depart="7.05" />
    <vehicle id="veh27" type="taxi" route="r_0" depart="7.25" />
    <vehicle id="veh522" type="CarB" route="r_4" depart="7.41" />
    <vehicle id="veh1191" type="passenger" route="r_9" depart="8.22" />
    <vehicle id="veh925" type="CarB" route="r_7" depart="13.19" />
    <vehicle id="veh857" type="passenger" route="r_6" depart="13.71" />
    <vehicle id="veh957" type="passenger/sedan" route="r_7" depart="14.14" />
    <vehicle id="veh951" type="emergency" route="r_7" depart="14.68" />
    <vehicle id="veh1206" type="passenger/hatchback" route="r_9" depart="17.45" />
    <vehicle id="veh357" type="passenger/wagon" route="r_2" depart="17.95" />
    <vehicle id="veh832" type="CarA" route="r_6" depart="17.96" />
    <vehicle id="veh315" type="bus" route="r_2" depart="19.38" />
    <vehicle id="veh1302" type="delivery" route="r_10" depart="20.98" />
    <vehicle id="veh1355" type="truck" route="r_11" depart="23.33" />
    <vehicle id="veh1087" type="passenger/sedan" route="r_8" depart="24.91" />
    <vehicle id="veh316" type="CarA" route="r_2" depart="26.76" />
    <vehicle id="veh1007" type="CarD" route="r_8" depart="29.23" />
    <vehicle id="veh432" type="passenger/sedan" route="r_3" depart="29.29" />
    <vehicle id="veh381" type="passenger/sedan" route="r_3" depart="30.19" />
    <vehicle id="veh1233" type="passenger/van" route="r_10" depart="31.16" />
    <vehicle id="veh73" type="truck" route="r_0" depart="32.11" />
    <vehicle id="veh1341" type="passenger/wagon" route="r_11" depart="33.81" />
    <vehicle id="veh428" type="passenger" route="r_3" depart="33.96" />
    <vehicle id="veh1211" type="taxi" route="r_10" depart="34.77" />
    <vehicle id="veh33" type="taxi" route="r_0" depart="35.73" />
    <vehicle id="veh1261" type="passenger/van" route="r_10" depart="37.04" />
    <vehicle id="veh131" type="rail" route="r_1" depart="39.03" />
    <vehicle id="veh853" type="passenger" route="r_6" depart="39.93" />
    <vehicle id="veh99" type="passenger/van" route="r_0" depart="39.96" />
    <vehicle id="veh795" type="passenger/hatchback" route="r_6" depart="41.20" />
    <vehicle id="veh935" type="rail" route="r_7" depart="42.57" />
    <vehicle id="veh1389" type="CarD" route="r_11" depart="45.18" />
    <vehicle id="veh568" type="passenger/hatchback" route="r_4" depart="48.29" />
    <vehicle id="veh1085" type="delivery" route="r_8" depart="48.65" />
    <vehicle id="veh1190" type="rail" route="r_9" depart="49.46" />
    <vehicle id="veh856" type="taxi" route="r_6" depart="53.08" />
    <vehicle id="veh549" type="bus" route="r_4" depart="55.84" />
    <vehicle id="veh420" type="rail" route="r_3" depart="57.52" />
    <vehicle id="veh907" type="passenger/hatchback" route="r_7" depart="60.59" />
    <vehicle id="veh40" type="CarA" route="r_0" depart="62.73" />
    <vehicle id="veh703" type="CarA" route="r_5" depart="64.69" />
    <vehicle id="veh289" type="CarD" route="r_2" depart="68.15" />
    <vehicle id="veh772" type="CarA" route="r_6" depart="71.00" />
    <vehicle id="veh830" type="truck" route="r_6" depart="72.02" />
    <vehicle id="veh660" type="bus" route="r_5" depart="75.11" />
    <vehicle id="veh1354" type="police" route="r_11" depart="75.62" />
    <vehicle id="veh17" type="passenger" route="r_0" depart="77.20" />
    <vehicle id="veh1201" type="passenger/wagon" route="r_9" depart="77.35" />
    <vehicle id="veh705" type="CarA" route="r_5" depart="77.64" />
    <vehicle id="veh32" type="rail" route="r_0" depart="78.10" />
    <vehicle id="veh375" type="truck" route="r_3" depart="78.84" />
    <vehicle id="veh515" type="police" route="r_4" depart="80.61" />
    <vehicle id="veh1004" type="delivery" route="r_8" depart="83.79" />
    <vehicle id="veh1145" type="passenger" route="r_9" depart="84.78" />
    <vehicle id="veh518" type="CarB" route="r_4" depart="85.05" />
    <vehicle id="veh206" type="delivery" route="r_1" depart="87.43" />
    <vehicle id="veh1262" type="taxi" route="r_10" depart="87.87" />
    <vehicle id="veh249" type="passenger" route="r_1" depart="88.38" />
    <vehicle id="veh291" type="passenger/wagon" route="r_2" depart="88.77" />
    <vehicle id="veh990" type="passenger/wagon" route="r_8" depart="94.22" />
    <vehicle id="veh736" type="passenger" route="r_5" depart="94.88" />
    <vehicle id="veh113" type="police" route="r_0" depart="96.84" />
    <vehicle id="veh793" type="taxi" route="r_6" depart="98.01" />
    <vehicle id="veh677" type="truck" route="r_5" depart="98.11" />
    <vehicle id="veh1147" type="passenger/sedan" route="r_9" depart="98.63" />
    <vehicle id="veh667" type="bus" route="r_5" depart="99.68" />
    <vehicle id="veh116" type="truck" route="r_0" depart="100.63" />
    <vehicle id="veh1192" type="passenger/hatchback" route="r_9" depart="102.04" />
    <vehicle id="veh1319" type="CarA" route="r_10" depart="102.42" />
    <vehicle id="veh948" type="CarB" route="r_7" depart="103.10" />
    <vehicle id="veh638" type="taxi" route="r_5" depart="103.21" />
    <vehicle id="veh1174" type="taxi" route="r_9" depart="105.57" />
    <vehicle id="veh971" type="bus" route="r_7" depart="106.96" />
    <vehicle id="veh731" type="CarD" route="r_5" depart="108.09" />
    <vehicle id="veh1250" type="passenger/hatchback" route="r_10" depart="108.80" />
    <vehicle id="veh601" type="police" route="r_4" depart="109.39" />
    <vehicle id="veh478" type="CarC" route="r_3" depart="110.25" />
    <vehicle id="veh625" type="passenger/wagon" route="r_5" depart="111.81" />
    <vehicle id="veh60" type="CarD" route="r_0" depart="117.75" />
    <vehicle id="veh552" type="passenger" route="r_4" depart="118.34" />
    <vehicle id="veh284" type="rail" route="r_2" depart="118.41" />
    <vehicle id="veh645" type="CarB" route="r_5" depart="119.34" />
    <vehicle id="veh355" type="passenger/van" route="r_2" depart="120.16" />
    <vehicle id="veh817" type="rail" route="r_6" depart="121.94" />
    <vehicle id="veh1252" type="truck" route="r_10" depart="122.01" />
    <vehicle id="veh700" type="police" route="r_5" depart="125.95" />
    <vehicle id="veh1164" type="truck" route="r_9" depart="130.71" />
    <vehicle id="veh103" type="passenger/van" route="r_0" depart="131.96" />
    <vehicle id="veh111" type="bus" route="r_0" depart="135.40" />
    <vehicle id="veh929" type="CarA" route="r_7" depart="138.38" />
    <vehicle id="veh900" type="passenger/wagon" route="r_7" depart="139.66" />
    <vehicle id="veh335" type="CarC" route="r_2" depart="141.30" />
    <vehicle id="veh1080" type="passenger/wagon" route="r_8" depart="142.73" />
    <vehicle id="veh193" type="CarB" route="r_1" depart="146.15" />
    <vehicle id="veh401" type="rail" route="r_3" depart="149.42" />
    <vehicle id="veh288" type="passenger/sedan" route="r_2" depart="149.50" />
    <vehicle id="veh297" type="passenger/van" route="r_2" depart="149.77" />
    <vehicle id="veh1275" type="CarA" route="r_10" depart="151.00" />
    <vehicle id="veh268" type="passenger/wagon" route="r_2" depart="151.66" />
    <vehicle id="veh1086" type="passenger/van" route="r_8" depart="152.01" />
    <vehicle id="veh281" type="CarC" route="r_2" depart="152.06" />
    <vehicle id="veh524" type="passenger/sedan" route="r_4" depart="152.99" />
    <vehicle id="veh605" type="CarD" route="r_4" depart="155.08" />
    <vehicle id="veh806" type="rail" route="r_6" depart="156.12" />
    <vehicle id="veh1415" type="CarB" route="r_11" depart="157.53" />
    <vehicle id="veh106" type="CarA" route="r_0" depart="157.74" />
    <vehicle id="veh1315" type="passenger/wagon" route="r_10" depart="161.51" />
    <vehicle id="veh1041" type="truck" route="r_8" depart="161.65" />
    <vehicle id="veh13" type="passenger/sedan" route="r_0" depart="164.31" />
    <vehicle id="veh141" type="truck" route="r_1" depart="164.70" />
    <vehicle id="veh782" type="passenger/wagon" route="r_6" depart="166.64" />
    <vehicle id="veh446" type="CarB" route="r_3" depart="167.41" />
    <vehicle id="veh1306" type="CarA" route="r_10" depart="170.57" />
    <vehicle id="veh146" type="bus" route="r_1" depart="172.96" />
    <vehicle id="veh24" type="police" route="r_0" depart="172.98" />
    <vehicle id="veh691" type="passenger/van" route="r_5" depart="173.31" />
    <vehicle id="veh1428" type="emergency" route="r_11" depart="173.60" />
    <vehicle id="veh1118" type="bus" route="r_9" depart="174.19" />
    <vehicle id="veh883" type="passenger" route="r_7" depart="176.50" />
    <vehicle id="veh64" type="passenger/wagon" route="r_0" depart="177.76" />
    <vehicle id="veh893" type="CarB" route="r_7" depart="177.90" />
    <vehicle id="veh1312" type="truck" route="r_10" depart="180.59" />
    <vehicle id="veh1434" type="bus" route="r_11" depart="182.19" />
    <vehicle id="veh553" type="passenger/sedan" route="r_4" depart="184.89" />
    <vehicle id="veh272" type="rail" route="r_2" depart="187.03" />
    <vehicle id="veh433" type="emergency" route="r_3" depart="190.44" />
    <vehicle id="veh739" type="rail" route="r_5" depart="190.81" />
    <vehicle id="veh671" type="CarD" route="r_5" depart="190.94" />
    <vehicle id="veh1107" type="CarC" route="r_9" depart="191.04" />
    <vehicle id="veh714" type="passenger/wagon" route="r_5" depart="191.52" />
    <vehicle id="veh635" type="taxi" route="r_5" depart="192.63" />
    <vehicle id="veh5" type="emergency" route="r_0" depart="193.15" />
    <vehicle id="veh327" type="CarD" route="r_2" depart="194.75" />
    <vehicle id="veh854" type="passenger/wagon" route="r_6" depart="194.80" />
    <vehicle id="veh1301" type="CarB" route="r_10" depart="195.47" />
    <vehicle id="veh956" type="passenger/hatchback" route="r_7" depart="195.72" />
    <vehicle id="veh992" type="bus" route="r_8" depart="195.78" />
    <vehicle id="veh1029" type="passenger" route="r_8" depart="196.65" />
    <vehicle id="veh1142" type="truck" route="r_9" depart="198.31" />
    <vehicle id="veh1300" type="emergency" route="r_10" depart="200.36" />
    <vehicle id="veh597" type="passenger/hatchback" route="r_4" depart="201.73" />
    <vehicle id="veh766" type="police" route="r_6" depart="202.14" />
    <vehicle id="veh91" type="bus" route="r_0" depart="202.42" />
    <vehicle id="veh724" type="passenger/wagon" route="r_5" depart="202.47" />
    <vehicle id="veh780" type="truck" route="r_6" depart="203.35" />
    <vehicle id="veh1237" type="CarB" route="r_10" depart="204.25" />
    <vehicle id="veh796" type="truck" route="r_6" depart="209.77" />
    <vehicle id="veh801" type="rail" route="r_6" depart="211.71" />
    <vehicle id="veh45" type="passenger/van" route="r_0" depart="212.93" />
    <vehicle id="veh592" type="passenger" route="r_4" depart="216.42" />
    <vehicle id="veh1038" type="CarD" route="r_8" depart="217.53" />
    <vehicle id="veh20" type="rail" route="r_0" depart="217.91" />
    <vehicle id="veh995" type="CarB" route="r_8" depart="219.89" />
    <vehicle id="veh1405" type="police" route="r_11" depart="221.57" />
    <vehicle id="veh644" type="police" route="r_5" depart="223.85" />
    <vehicle id="veh1402" type="CarB" route="r_11" depart="223.94" />
    <vehicle id="veh1006" type="CarA" route="r_8" depart="226.15" />
    <vehicle id="veh1202" type="passenger/wagon" route="r_9" depart="228.20" />
    <vehicle id="veh204" type="police" route="r_1" depart="228.82" />
    <vehicle id="veh1238" type="taxi" route="r_10" depart="229.95" />
    <vehicle id="veh850" type="passenger/sedan" route="r_6" depart="229.96" />
    <vehicle id="veh1030" type="emergency" route="r_8" depart="230.66" />
    <vehicle id="veh1168" type="rail" route="r_9" depart="232.82" />
    <vehicle id="veh1074" type="rail" route="r_8" depart="233.32" />
    <vehicle id="veh986" type="rail" route="r_8" depart="233.93" />
    <vehicle id="veh1195" type="CarB" route="r_9" depart="235.68" />
    <vehicle id="veh1293" type="passenger/wagon" route="r_10" depart="236.45" />
    <vehicle id="veh224" type="police" route="r_1" depart="237.41" />
    <vehicle id="veh1163" type="passenger/van" route="r_9" depart="240.20" />
    <vehicle id="veh509" type="CarD" route="r_4" depart="240.30" />
    <vehicle id="veh799" type="CarA" route="r_6" depart="240.48" />
    <vehicle id="veh147" type="passenger/van" route="r_1" depart="242.08" />
    <vehicle id="veh1149" type="passenger/hatchback" route="r_9" depart="244.82" />
    <vehicle id="veh752" type="taxi" route="r_6" depart="245.78" />
    <vehicle id="veh396" type="rail" route="r_3" depart="247.47" />
    <vehicle id="veh899" type="passenger/hatchback" route="r_7" depart="247.72" />
    <vehicle id="veh1197" type="truck" route="r_9" depart="248.18" />
    <vehicle id="veh849" type="delivery" route="r_6" depart="248.26" />
    <vehicle id="veh130" type="CarA" route="r_1" depart="250.09" />
    <vehicle id="veh1065" type="taxi" route="r_8" depart="250.15" />
    <vehicle id="veh576" type="passenger" route="r_4" depart="251.50" />
    <vehicle id="veh266" type="passenger/hatchback" route="r_2" depart="251.69" />
    <vehicle id="veh949" type="CarC" route="r_7" depart="254.00" />
    <vehicle id="veh794" type="CarD" route="r_6" depart="259.32" />
    <vehicle id="veh749" type="CarA" route="r_6" depart="262.35" />
    <vehicle id="veh1060" type="CarA" route="r_8" depart="264.33" />
    <vehicle id="veh79" type="taxi" route="r_0" depart="265.12" />
    <vehicle id="veh98" type="passenger/van" route="r_0" depart="271.05" />
    <vehicle id="veh441" type="bus" route="r_3" depart="271.91" />
    <vehicle id="veh1040" type="truck" route="r_8" depart="273.27" />
    <vehicle id="veh954" type="CarA" route="r_7" depart="276.46" />
    <vehicle id="veh960" type="emergency" route="r_7" depart="277.80" />
    <vehicle id="veh1332" type="passenger" route="r_11" depart="278.80" />
    <vehicle id="veh1153" type="CarB" route="r_9" depart="278.99" />
    <vehicle id="veh526" type="rail" route="r_4" depart="281.71" />
    <vehicle id="veh1254" type="police" route="r_10" depart="281.72" />
    <vehicle id="veh867" type="CarC" route="r_7" depart="282.07" />
    <vehicle id="veh540" type="passenger/wagon" route="r_4" depart="282.17" />
    <vehicle id="veh1024" type="passenger/sedan" route="r_8" depart="282.27" />
    <vehicle id="veh1219" type="passenger/wagon" route="r_10" depart="282.36" />
    <vehicle id="veh668" type="passenger/hatchback" route="r_5" depart="282.80" />
    <vehicle id="veh209" type="passenger/wagon" route="r_1" depart="283.66" />
    <vehicle id="veh758" type="bus" route="r_6" depart="284.75" />
    <vehicle id="veh504" type="taxi" route="r_4" depart="287.06" />
    <vehicle id="veh250" type="passenger/van" route="r_1" depart="288.90" />
    <vehicle id="veh664" type="CarC" route="r_5" depart="289.38" />
    <vehicle id="veh535" type="passenger/van" route="r_4" depart="289.42" />
    <vehicle id="veh1274" type="bus" route="r_10" depart="289.50" />
    <vehicle id="veh1205" type="delivery" route="r_9" depart="291.25" />
    <vehicle id="veh145" type="CarB" route="r_1" depart="292.04" />
    <vehicle id="veh974" type="CarA" route="r_7" depart="292.77" />
    <vehicle id="veh590" type="passenger/hatchback" route="r_4" depart="292.91" />
    <vehicle id="veh311" type="passenger" route="r_2" depart="293.02" />
    <vehicle id="veh398" type="emergency" route="r_3" depart="294.59" />
    <vehicle id="veh1016" type="CarB" route="r_8" depart="295.83" />
    <vehicle id="veh278" type="rail" route="r_2" depart="296.42" />
    <vehicle id="veh4" type="passenger" route="r_0" depart="296.90" />
    <vehicle id="veh1396" type="passenger/wagon" route="r_11" depart="297.45" />
    <vehicle id="veh1403" type="CarB" route="r_11" depart="298.16" />
    <vehicle id="veh343" type="taxi" route="r_2" depart="298.23" />
    <vehicle id="veh757" type="passenger/van" route="r_6" depart="301.16" />
    <vehicle id="veh831" type="CarD" route="r_6" depart="304.54" />
    <vehicle id="veh586" type="CarB" route="r_4" depart="308.25" />
    <vehicle id="veh246" type="passenger/wagon" route="r_1" depart="308.65" />
    <vehicle id="veh411" type="delivery" route="r_3" depart="312.47" />
    <vehicle id="veh950" type="passenger/hatchback" route="r_7" depart="314.79" />
    <vehicle id="veh404" type="passenger" route="r_3" depart="318.01" />
    <vehicle id="veh892" type="rail" route="r_7" depart="321.68" />
    <vehicle id="veh599" type="CarA" route="r_4" depart="322.83" />
    <vehicle id="veh1159" type="bus" route="r_9" depart="323.66" />
    <vehicle id="veh572" type="passenger/van" route="r_4" depart="324.91" />
    <vehicle id="veh188" type="emergency" route="r_1" depart="325.72" />
    <vehicle id="veh733" type="truck" route="r_5" depart="326.17" />
    <vehicle id="veh901" type="CarC" route="r_7" depart="326.47" />
    <vehicle id="veh385" type="passenger/hatchback" route="r_3" depart="327.12" />
    <vehicle id="veh14" type="bus" route="r_0" depart="328.31" />
    <vehicle id="veh218" type="passenger" route="r_1" depart="329.69" />
    <vehicle id="veh784" type="bus" route="r_6" depart="331.57" />
    <vehicle id="veh393" type="truck" route="r_3" depart="331.81" />
    <vehicle id="veh532" type="passenger/hatchback" route="r_4" depart="333.22" />
    <vehicle id="veh1382" type="bus" route="r_11" depart="333.37" />
    <vehicle id="veh881" type="delivery" route="r_7" depart="334.03" />
    <vehicle id="veh159" type="bus" route="r_1" depart="334.28" />
    <vehicle id="veh162" type="passenger/wagon" route="r_1" depart="336.06" />
    <vehicle id="veh1283" type="passenger/wagon" route="r_10" depart="336.33" />
    <vehicle id="veh42" type="CarC" route="r_0" depart="337.21" />
    <vehicle id="veh489" type="passenger/sedan" route="r_3" depart="338.28" />
    <vehicle id="veh500" type="CarB" route="r_4" depart="342.87" />
    <vehicle id="veh574" type="truck" route="r_4" depart="343.43" />
    <vehicle id="veh1098" type="passenger/hatchback" route="r_8" depart="345.51" />
    <vehicle id="veh1196" type="truck" route="r_9" depart="345.52" />
    <vehicle id="veh245" type="emergency" route="r_1" depart="348.10" />
    <vehicle id="veh1424" type="delivery" route="r_11" depart="351.06" />
    <vehicle id="veh21" type="passenger/hatchback" route="r_0" depart="351.30" />
    <vehicle id="veh697" type="CarB" route="r_5" depart="352.46" />
    <vehicle id="veh902" type="CarD" route="r_7" depart="357.52" />
    <vehicle id="veh239" type="taxi" route="r_1" depart="360.33" />
    <vehicle id="veh466" type="bus" route="r_3" depart="362.92" />
    <vehicle id="veh1000" type="delivery" route="r_8" depart="365.63" />
    <vehicle id="veh175" type="passenger" route="r_1" depart="367.21" />
    <vehicle id="veh589" type="emergency" route="r_4" depart="370.41" />
    <vehicle id="veh337" type="CarC" route="r_2" depart="371.50" />
    <vehicle id="veh438" type="passenger/sedan" route="r_3" depart="373.56" />
    <vehicle id="veh1223" type="truck" route="r_10" depart="376.21" />
    <vehicle id="veh1011" type="CarA" route="r_8" depart="377.40" />
    <vehicle id="veh726" type="truck" route="r_5" depart="377.48" />
    <vehicle id="veh475" type="truck" route="r_3" depart="377.84" />
    <vehicle id="veh1112" type="CarA" route="r_9" depart="378.04" />
    <vehicle id="veh495" type="passenger" route="r_3" depart="381.39" />
    <vehicle id="veh378" type="CarB" route="r_3" depart="383.98" />
    <vehicle id="veh789" type="passenger/van" route="r_6" depart="387.40" />
    <vehicle id="veh89" type="passenger/sedan" route="r_0" depart="388.93" />
    <vehicle id="veh102" type="passenger/van" route="r_0" depart="391.78" />
    <vehicle id="veh1376" type="passenger/sedan" route="r_11" depart="395.17" />
    <vehicle id="veh895" type="delivery" route="r_7" depart="395.95" />
    <vehicle id="veh760" type="passenger" route="r_6" depart="396.61" />
    <vehicle id="veh1059" type="CarB" route="r_8" depart="399.70" />
    <vehicle id="veh1026" type="bus" route="r_8" depart="402.12" />
    <vehicle id="veh921" type="CarD" route="r_7" depart="403.06" />
    <vehicle id="veh918" type="passenger" route="r_7" depart="408.96" />
    <vehicle id="veh1381" type="CarB" route="r_11" depart="409.81" />
    <vehicle id="veh1322" type="delivery" route="r_10" depart="412.65" />
    <vehicle id="veh1222" type="emergency" route="r_10" depart="412.77" />
    <vehicle id="veh603" type="passenger/van" route="r_4" depart="413.09" />
    <vehicle id="veh341" type="rail" route="r_2" depart="413.31" />
    <vehicle id="veh491" type="passenger" route="r_3" depart="413.56" />
    <vehicle id="veh231" type="bus" route="r_1" depart="414.27" />
    <vehicle id="veh331" type="CarA" route="r_2" depart="416.07" />
    <vehicle id="veh1148" type="CarD" route="r_9" depart="416.28" />
    <vehicle id="veh511" type="delivery" route="r_4" depart="416.29" />
    <vehicle id="veh912" type="CarA" route="r_7" depart="417.35" />
    <vehicle id="veh755" type="CarA" route="r_6" depart="418.32" />
    <vehicle id="veh837" type="passenger/van" route="r_6" depart="418.87" />
    <vehicle id="veh859" type="passenger/hatchback" route="r_6" depart="419.93" />
    <vehicle id="veh1227" type="CarD" route="r_10" depart="421.07" />
    <vehicle id="veh689" type="taxi" route="r_5" depart="424.93" />
    <vehicle id="veh615" type="passenger/hatchback" route="r_4" depart="426.81" />
    <vehicle id="veh818" type="emergency" route="r_6" depart="427.58" />
    <vehicle id="veh759" type="passenger" route="r_6" depart="428.68" />
    <vehicle id="veh304" type="delivery" route="r_2" depart="429.06" />
    <vehicle id="veh409" type="passenger/sedan" route="r_3" depart="429.26" />
    <vehicle id="veh1042" type="taxi" route="r_8" depart="429.32" />
    <vehicle id="veh1055" type="passenger/hatchback" route="r_8" depart="432.63" />
    <vehicle id="veh1324" type="CarD" route="r_11" depart="433.86" />
    <vehicle id="veh7" type="passenger" route="r_0" depart="433.91" />
    <vehicle id="veh125" type="passenger" route="r_0" depart="435.03" />
    <vehicle id="veh406" type="delivery" route="r_3" depart="438.18" />
    <vehicle id="veh19" type="passenger" route="r_0" depart="439.58" />
    <vehicle id="veh812" type="emergency" route="r_6" depart="440.83" />
    <vehicle id="veh521" type="passenger/van" route="r_4" depart="441.53" />
    <vehicle id="veh994" type="passenger/hatchback" route="r_8" depart="443.68" />
    <vehicle id="veh1048" type="CarD" route="r_8" depart="449.29" />
    <vehicle id="veh128" type="delivery" route="r_1" depart="450.55" />
    <vehicle id="veh1290" type="delivery" route="r_10" depart="450.88" />
    <vehicle id="veh841" type="emergency" route="r_6" depart="451.02" />
    <vehicle id="veh264" type="taxi" route="r_2" depart="453.95" />
    <vehicle id="veh665" type="emergency" route="r_5" depart="456.94" />
    <vehicle id="veh663" type="truck" route="r_5" depart="457.79" />
    <vehicle id="veh672" type="emergency" route="r_5" depart="459.34" />